Network_06R-124/scenario_105/case.raw
0,100.0,33,0,0,60.0
GRID OPTIMIZATION COMPETITION
INPUT DATA FILES ARE RAW ROP INL CON
1,'            ',138.0,1,1,1,1,1.0292102,-20.394126,1.1,0.9,1.1,0.9
2,'            ',69.0,1,1,1,1,1.0354009,-23.246646,1.1,0.9,1.1,0.9
3,'            ',138.0,1,1,1,1,1.0286468,-20.433447,1.1,0.9,1.1,0.9
4,'            ',69.0,1,1,1,1,1.0364906,-25.453884,1.1,0.9,1.1,0.9
5,'            ',69.0,1,1,1,1,1.0362737,-25.252357,1.1,0.9,1.1,0.9
6,'            ',69.0,1,1,1,1,1.0189374,-25.404561,1.1,0.9,1.1,0.9
7,'            ',138.0,1,1,1,1,1.0170095,-21.661457,1.1,0.9,1.1,0.9
8,'            ',69.0,1,1,1,1,1.0395,-26.746258,1.1,0.9,1.1,0.9
9,'            ',138.0,1,1,1,1,1.0149996,-21.871593,1.1,0.9,1.1,0.9
10,'            ',69.0,1,1,1,1,1.0304531,-25.609381,1.1,0.9,1.1,0.9
11,'            ',138.0,1,1,1,1,1.0143967,-21.934836,1.1,0.9,1.1,0.9
12,'            ',138.0,1,1,1,1,1.0163392,-22.003867,1.1,0.9,1.1,0.9
13,'            ',69.0,1,1,1,1,1.0184356,-25.812495,1.1,0.9,1.1,0.9
14,'            ',138.0,1,1,1,1,1.0164082,-21.981587,1.1,0.9,1.1,0.9
15,'            ',138.0,1,1,1,1,1.015393,-21.73835,1.1,0.9,1.1,0.9
16,'            ',69.0,1,1,1,1,1.0495862,-23.796124,1.1,0.9,1.1,0.9
17,'            ',69.0,1,1,1,1,1.0093162,-24.548249,1.1,0.9,1.1,0.9
18,'            ',69.0,1,1,1,1,1.0217684,-24.48441,1.1,0.9,1.1,0.9
19,'            ',69.0,1,1,1,1,1.0216936,-24.496276,1.1,0.9,1.1,0.9
20,'            ',138.0,1,1,1,1,1.0202877,-21.367243,1.1,0.9,1.1,0.9
21,'            ',69.0,1,1,1,1,1.0500633,-24.385213,1.1,0.9,1.1,0.9
22,'            ',138.0,1,1,1,1,1.0213646,-21.267018,1.1,0.9,1.1,0.9
23,'            ',69.0,1,1,1,1,1.0334017,-23.955649,1.1,0.9,1.1,0.9
24,'            ',69.0,1,1,1,1,1.0055906,-23.135644,1.1,0.9,1.1,0.9
25,'            ',69.0,1,1,1,1,1.0055107,-23.147932,1.1,0.9,1.1,0.9
26,'            ',138.0,1,1,1,1,1.0169238,-21.466535,1.1,0.9,1.1,0.9
27,'            ',69.0,1,1,1,1,1.0330684,-24.336329,1.1,0.9,1.1,0.9
28,'            ',138.0,1,1,1,1,1.0169013,-21.445993,1.1,0.9,1.1,0.9
29,'            ',69.0,1,1,1,1,1.0480857,-22.498494,1.1,0.9,1.1,0.9
30,'            ',138.0,1,1,1,1,1.0219243,-21.378974,1.1,0.9,1.1,0.9
31,'            ',138.0,1,1,1,1,1.0188892,-21.531777,1.1,0.9,1.1,0.9
32,'            ',69.0,1,1,1,1,1.0150886,-23.494314,1.1,0.9,1.1,0.9
33,'            ',138.0,1,1,1,1,1.0184879,-21.578211,1.1,0.9,1.1,0.9
34,'            ',138.0,1,1,1,1,1.0221523,-20.576848,1.1,0.9,1.1,0.9
35,'            ',69.0,1,1,1,1,1.0458508,-23.670323,1.1,0.9,1.1,0.9
36,'            ',69.0,1,1,1,1,1.0544497,-22.800063,1.1,0.9,1.1,0.9
37,'            ',69.0,1,1,1,1,1.0447534,-24.189434,1.1,0.9,1.1,0.9
38,'            ',69.0,1,1,1,1,1.0418135,-25.215452,1.1,0.9,1.1,0.9
39,'            ',138.0,1,1,1,1,1.0232536,-19.076898,1.1,0.9,1.1,0.9
40,'            ',69.0,1,1,1,1,1.0302975,-21.135548,1.1,0.9,1.1,0.9
41,'            ',69.0,1,1,1,1,1.0095706,-22.745491,1.1,0.9,1.1,0.9
42,'            ',138.0,1,1,1,1,1.0191943,-21.630077,1.1,0.9,1.1,0.9
43,'            ',69.0,1,1,1,1,1.0199629,-24.208352,1.1,0.9,1.1,0.9
44,'            ',138.0,1,1,1,1,1.0184836,-21.676917,1.1,0.9,1.1,0.9
45,'            ',69.0,1,1,1,1,1.0005892,-25.171295,1.1,0.9,1.1,0.9
46,'            ',69.0,1,1,1,1,1.0121057,-24.625182,1.1,0.9,1.1,0.9
47,'            ',345.0,1,1,1,1,1.0331239,-13.714566,1.1,0.9,1.1,0.9
48,'            ',138.0,1,1,1,1,1.0480192,-15.082227,1.1,0.9,1.1,0.9
49,'            ',69.0,1,1,1,1,1.0489815,-17.640319,1.1,0.9,1.1,0.9
50,'            ',345.0,1,1,1,1,1.0327642,-13.742711,1.1,0.9,1.1,0.9
51,'            ',69.0,1,1,1,1,1.0137783,-21.344752,1.1,0.9,1.1,0.9
52,'            ',345.0,1,1,1,1,1.0341529,-15.068224,1.1,0.9,1.1,0.9
53,'            ',138.0,1,1,1,1,1.0271195,-18.277774,1.1,0.9,1.1,0.9
54,'            ',345.0,1,1,1,1,1.0337166,-15.111324,1.1,0.9,1.1,0.9
55,'            ',138.0,1,1,1,1,1.0399511,-15.838039,1.1,0.9,1.1,0.9
56,'            ',69.0,1,1,1,1,1.0410177,-19.500674,1.1,0.9,1.1,0.9
57,'            ',138.0,1,1,1,1,1.0397773,-15.863374,1.1,0.9,1.1,0.9
58,'            ',69.0,1,1,1,1,1.0332231,-20.721978,1.1,0.9,1.1,0.9
59,'            ',69.0,1,1,1,1,1.0443547,-16.501298,1.1,0.9,1.1,0.9
60,'            ',69.0,1,1,1,1,1.0438698,-17.136928,1.1,0.9,1.1,0.9
61,'            ',69.0,1,1,1,1,1.0319907,-19.537358,1.1,0.9,1.1,0.9
62,'            ',69.0,1,1,1,1,1.043742,-18.148007,1.1,0.9,1.1,0.9
63,'            ',138.0,1,1,1,1,1.0123954,-17.110328,1.1,0.9,1.1,0.9
64,'            ',69.0,1,1,1,1,1.0461714,-18.532634,1.1,0.9,1.1,0.9
65,'            ',138.0,1,1,1,1,1.0122346,-17.120999,1.1,0.9,1.1,0.9
66,'            ',69.0,1,1,1,1,1.0391723,-17.463603,1.1,0.9,1.1,0.9
67,'            ',138.0,1,1,1,1,1.0192108,-16.108579,1.1,0.9,1.1,0.9
68,'            ',69.0,1,1,1,1,1.0513581,-16.226793,1.1,0.9,1.1,0.9
69,'            ',138.0,1,1,1,1,1.0191281,-16.113985,1.1,0.9,1.1,0.9
70,'            ',69.0,1,1,1,1,1.0471851,-16.979436,1.1,0.9,1.1,0.9
71,'            ',138.0,1,1,1,1,1.0297613,-15.978882,1.1,0.9,1.1,0.9
72,'            ',69.0,1,1,1,1,1.053811,-16.527635,1.1,0.9,1.1,0.9
73,'            ',138.0,1,1,1,1,1.0296055,-15.993657,1.1,0.9,1.1,0.9
74,'            ',69.0,1,1,1,1,1.0335,-14.274263,1.1,0.9,1.1,0.9
75,'            ',69.0,1,1,1,1,1.0315853,-13.768803,1.1,0.9,1.1,0.9
76,'            ',138.0,1,1,1,1,1.0318818,-14.211969,1.1,0.9,1.1,0.9
77,'            ',69.0,1,1,1,1,1.0333904,-13.872997,1.1,0.9,1.1,0.9
78,'            ',138.0,1,1,1,1,1.0317269,-14.232286,1.1,0.9,1.1,0.9
79,'            ',138.0,1,1,1,1,1.0298287,-14.132999,1.1,0.9,1.1,0.9
80,'            ',69.0,1,1,1,1,1.0476478,-13.542622,1.1,0.9,1.1,0.9
81,'            ',138.0,1,1,1,1,1.0297626,-14.140679,1.1,0.9,1.1,0.9
82,'            ',69.0,1,1,1,1,1.0480713,-14.193139,1.1,0.9,1.1,0.9
83,'            ',138.0,1,1,1,1,1.0213267,-15.757201,1.1,0.9,1.1,0.9
84,'            ',138.0,1,1,1,1,1.0213267,-15.757201,1.1,0.9,1.1,0.9
85,'            ',138.0,1,1,1,1,1.0213267,-15.757201,1.1,0.9,1.1,0.9
86,'            ',138.0,1,1,1,1,1.0268563,-20.722833,1.1,0.9,1.1,0.9
87,'            ',69.0,1,1,1,1,1.0547816,-23.447748,1.1,0.9,1.1,0.9
88,'            ',138.0,1,1,1,1,1.0265311,-20.75719,1.1,0.9,1.1,0.9
89,'            ',138.0,1,1,1,1,1.0346392,-17.601942,1.1,0.9,1.1,0.9
90,'            ',69.0,1,1,1,1,1.0415912,-20.16375,1.1,0.9,1.1,0.9
91,'            ',138.0,1,1,1,1,1.0343177,-17.645535,1.1,0.9,1.1,0.9
92,'            ',69.0,1,1,1,1,1.0342694,-19.586393,1.1,0.9,1.1,0.9
93,'            ',69.0,1,1,1,1,1.0365,-20.147771,1.1,0.9,1.1,0.9
94,'            ',69.0,1,1,1,1,1.031237,-19.928403,1.1,0.9,1.1,0.9
95,'            ',69.0,1,1,1,1,1.0415,-19.447679,1.1,0.9,1.1,0.9
96,'            ',345.0,1,1,1,1,1.0307362,-13.418463,1.1,0.9,1.1,0.9
97,'            ',138.0,1,1,1,1,1.042255,-16.347237,1.1,0.9,1.1,0.9
98,'            ',69.0,1,1,1,1,1.0481641,-19.244952,1.1,0.9,1.1,0.9
99,'            ',138.0,1,1,1,1,1.0406956,-16.572389,1.1,0.9,1.1,0.9
100,'            ',138.0,1,1,1,1,1.036291,-18.227735,1.1,0.9,1.1,0.9
101,'            ',69.0,1,1,1,1,1.0430284,-20.577228,1.1,0.9,1.1,0.9
102,'            ',138.0,1,1,1,1,1.0357888,-18.287875,1.1,0.9,1.1,0.9
103,'            ',69.0,1,1,1,1,1.0424157,-19.73639,1.1,0.9,1.1,0.9
104,'            ',69.0,1,1,1,1,1.0410687,-20.009494,1.1,0.9,1.1,0.9
105,'            ',345.0,1,1,1,1,1.0395,-12.415695,1.1,0.9,1.1,0.9
106,'            ',138.0,1,1,1,1,1.0367392,-15.293244,1.1,0.9,1.1,0.9
107,'            ',69.0,1,1,1,1,1.0445348,-18.357568,1.1,0.9,1.1,0.9
108,'            ',345.0,1,1,1,1,1.0390016,-12.462205,1.1,0.9,1.1,0.9
109,'            ',69.0,1,1,1,1,1.0233047,-20.997391,1.1,0.9,1.1,0.9
110,'            ',138.0,1,1,1,1,1.0395543,-18.125969,1.1,0.9,1.1,0.9
111,'            ',69.0,1,1,1,1,1.0425178,-19.101,1.1,0.9,1.1,0.9
112,'            ',138.0,1,1,1,1,1.0391075,-18.18025,1.1,0.9,1.1,0.9
113,'            ',69.0,1,1,1,1,1.0248339,-21.941229,1.1,0.9,1.1,0.9
114,'            ',69.0,1,1,1,1,1.0345,-16.226401,1.1,0.9,1.1,0.9
115,'            ',69.0,1,1,1,1,1.0351918,-19.779951,1.1,0.9,1.1,0.9
116,'            ',69.0,1,1,1,1,1.0416034,-20.391454,1.1,0.9,1.1,0.9
117,'            ',69.0,1,1,1,1,1.027231,-19.417751,1.1,0.9,1.1,0.9
118,'            ',69.0,1,1,1,1,1.030248,-19.882725,1.1,0.9,1.1,0.9
119,'            ',69.0,1,1,1,1,1.0326741,-25.226583,1.1,0.9,1.1,0.9
120,'            ',69.0,1,1,1,1,1.0243803,-25.51241,1.1,0.9,1.1,0.9
121,'            ',138.0,1,1,1,1,0.99831684,-23.780681,1.1,0.9,1.1,0.9
122,'            ',69.0,1,1,1,1,1.0279145,-24.314872,1.1,0.9,1.1,0.9
123,'            ',138.0,1,1,1,1,0.99780009,-23.834401,1.1,0.9,1.1,0.9
124,'            ',138.0,1,1,1,1,1.0018459,-24.611555,1.1,0.9,1.1,0.9
125,'            ',69.0,1,1,1,1,1.014761,-25.885011,1.1,0.9,1.1,0.9
126,'            ',138.0,1,1,1,1,1.0014155,-24.646581,1.1,0.9,1.1,0.9
127,'            ',69.0,1,1,1,1,1.0379969,-23.466065,1.1,0.9,1.1,0.9
128,'            ',69.0,1,1,1,1,1.0385,-25.691045,1.1,0.9,1.1,0.9
129,'            ',69.0,1,1,1,1,1.0328096,-24.218234,1.1,0.9,1.1,0.9
130,'            ',69.0,1,1,1,1,1.0324684,-24.266239,1.1,0.9,1.1,0.9
131,'            ',69.0,1,1,1,1,1.0375,-28.042985,1.1,0.9,1.1,0.9
132,'            ',138.0,1,1,1,1,1.0032153,-24.687316,1.1,0.9,1.1,0.9
133,'            ',69.0,1,1,1,1,1.0167874,-26.881801,1.1,0.9,1.1,0.9
134,'            ',138.0,1,1,1,1,1.00309,-24.624844,1.1,0.9,1.1,0.9
135,'            ',138.0,1,1,1,1,1.0013577,-22.688049,1.1,0.9,1.1,0.9
136,'            ',69.0,1,1,1,1,1.0349376,-25.006209,1.1,0.9,1.1,0.9
137,'            ',138.0,1,1,1,1,1.0007152,-22.780793,1.1,0.9,1.1,0.9
138,'            ',69.0,1,1,1,1,1.0339711,-24.933446,1.1,0.9,1.1,0.9
139,'            ',138.0,1,1,1,1,0.99870013,-23.629095,1.1,0.9,1.1,0.9
140,'            ',69.0,1,1,1,1,1.0151028,-26.838369,1.1,0.9,1.1,0.9
141,'            ',138.0,1,1,1,1,0.9990257,-23.609732,1.1,0.9,1.1,0.9
142,'            ',138.0,1,1,1,1,1.0020796,-22.94548,1.1,0.9,1.1,0.9
143,'            ',69.0,1,1,1,1,1.0294589,-24.726794,1.1,0.9,1.1,0.9
144,'            ',138.0,1,1,1,1,1.0016741,-23.005219,1.1,0.9,1.1,0.9
145,'            ',69.0,1,1,1,1,1.0369904,-23.913895,1.1,0.9,1.1,0.9
146,'            ',69.0,1,1,1,1,1.0367441,-25.902294,1.1,0.9,1.1,0.9
147,'            ',138.0,1,1,1,1,1.0034359,-22.113131,1.1,0.9,1.1,0.9
148,'            ',69.0,1,1,1,1,1.0373913,-23.991277,1.1,0.9,1.1,0.9
149,'            ',138.0,1,1,1,1,1.0029015,-22.179646,1.1,0.9,1.1,0.9
150,'            ',69.0,1,1,1,1,1.0283076,-25.551629,1.1,0.9,1.1,0.9
151,'            ',138.0,1,1,1,1,1.0088577,-22.534028,1.1,0.9,1.1,0.9
152,'            ',69.0,1,1,1,1,1.0410675,-24.98382,1.1,0.9,1.1,0.9
153,'            ',138.0,1,1,1,1,1.0085952,-22.578012,1.1,0.9,1.1,0.9
154,'            ',69.0,1,1,1,1,1.0265877,-25.984364,1.1,0.9,1.1,0.9
155,'            ',69.0,1,1,1,1,1.0384022,-23.27522,1.1,0.9,1.1,0.9
156,'            ',69.0,1,1,1,1,1.0374784,-24.012028,1.1,0.9,1.1,0.9
157,'            ',138.0,1,1,1,1,1.0124938,-20.238621,1.1,0.9,1.1,0.9
158,'            ',138.0,1,1,1,1,1.014848,-19.901213,1.1,0.9,1.1,0.9
159,'            ',345.0,1,1,1,1,1.0365,-16.038229,1.1,0.9,1.1,0.9
160,'            ',138.0,1,1,1,1,1.0320974,-17.582064,1.1,0.9,1.1,0.9
161,'            ',69.0,1,1,1,1,1.0327388,-20.805698,1.1,0.9,1.1,0.9
162,'            ',138.0,1,1,1,1,1.0304776,-17.750851,1.1,0.9,1.1,0.9
163,'            ',69.0,1,1,1,1,1.0404037,-22.163093,1.1,0.9,1.1,0.9
164,'            ',69.0,1,1,1,1,1.0293409,-25.811435,1.1,0.9,1.1,0.9
165,'            ',138.0,1,1,1,1,1.0008057,-22.621436,1.1,0.9,1.1,0.9
166,'            ',69.0,1,1,1,1,1.0382119,-24.931685,1.1,0.9,1.1,0.9
167,'            ',138.0,1,1,1,1,0.99922912,-22.711648,1.1,0.9,1.1,0.9
168,'            ',69.0,1,1,1,1,1.0325626,-25.42273,1.1,0.9,1.1,0.9
169,'            ',69.0,1,1,1,1,1.0355,-25.664708,1.1,0.9,1.1,0.9
170,'            ',138.0,1,1,1,1,1.00645,-22.913589,1.1,0.9,1.1,0.9
171,'            ',69.0,1,1,1,1,1.0370145,-25.401,1.1,0.9,1.1,0.9
172,'            ',138.0,1,1,1,1,1.005979,-22.965333,1.1,0.9,1.1,0.9
173,'            ',69.0,1,1,1,1,1.0415,-26.185417,1.1,0.9,1.1,0.9
174,'            ',138.0,1,1,1,1,1.0135657,-21.759815,1.1,0.9,1.1,0.9
175,'            ',69.0,1,1,1,1,1.0455754,-24.091183,1.1,0.9,1.1,0.9
176,'            ',138.0,1,1,1,1,1.0132545,-21.805502,1.1,0.9,1.1,0.9
177,'            ',69.0,1,1,1,1,1.0405,-24.692511,1.1,0.9,1.1,0.9
178,'            ',69.0,1,1,1,1,1.0335,-22.86079,1.1,0.9,1.1,0.9
179,'            ',69.0,1,1,1,1,1.0408547,-23.519878,1.1,0.9,1.1,0.9
180,'            ',69.0,1,1,1,1,1.0393914,-23.542971,1.1,0.9,1.1,0.9
181,'            ',138.0,1,1,1,1,1.0110038,-22.4548,1.1,0.9,1.1,0.9
182,'            ',69.0,1,1,1,1,1.0288086,-25.344019,1.1,0.9,1.1,0.9
183,'            ',138.0,1,1,1,1,1.0105644,-22.503818,1.1,0.9,1.1,0.9
184,'            ',69.0,1,1,1,1,1.0328278,-24.439569,1.1,0.9,1.1,0.9
185,'            ',69.0,1,1,1,1,1.0305587,-25.010409,1.1,0.9,1.1,0.9
186,'            ',69.0,1,1,1,1,1.0405,-23.297826,1.1,0.9,1.1,0.9
187,'            ',69.0,1,1,1,1,1.0202179,-25.663208,1.1,0.9,1.1,0.9
188,'            ',138.0,1,1,1,1,1.0347016,-20.953401,1.1,0.9,1.1,0.9
189,'            ',69.0,1,1,1,1,1.0455932,-23.102484,1.1,0.9,1.1,0.9
190,'            ',138.0,1,1,1,1,1.0344048,-20.990376,1.1,0.9,1.1,0.9
191,'            ',138.0,1,1,1,1,1.0104142,-20.563452,1.1,0.9,1.1,0.9
192,'            ',69.0,1,1,1,1,1.0455036,-23.195804,1.1,0.9,1.1,0.9
193,'            ',138.0,1,1,1,1,1.012038,-20.389987,1.1,0.9,1.1,0.9
194,'            ',138.0,1,1,1,1,1.0083983,-20.974941,1.1,0.9,1.1,0.9
195,'            ',69.0,1,1,1,1,1.0456662,-23.181613,1.1,0.9,1.1,0.9
196,'            ',138.0,1,1,1,1,1.0081686,-21.00816,1.1,0.9,1.1,0.9
197,'            ',69.0,1,1,1,1,1.0348206,-23.042536,1.1,0.9,1.1,0.9
198,'            ',69.0,1,1,1,1,1.0350645,-23.014548,1.1,0.9,1.1,0.9
199,'            ',69.0,1,1,1,1,1.0395,-22.371478,1.1,0.9,1.1,0.9
200,'            ',69.0,1,1,1,1,1.0265083,-21.224641,1.1,0.9,1.1,0.9
...
0 / END OF BUS DATA BEGIN LOAD DATA
3,'1',1,1,1,79.599164,38.515133,0.0,0.0,0.0,0.0,1,1,0
4,'1',1,1,1,47.857213,3.2246982,0.0,0.0,0.0,0.0,1,1,0
5,'1',1,1,1,71.077816,34.986818,0.0,0.0,0.0,0.0,1,1,0
6,'1',1,1,1,77.369839,6.2722388,0.0,0.0,0.0,0.0,1,1,0
7,'1',1,1,1,73.334944,15.773407,0.0,0.0,0.0,0.0,1,1,0
8,'1',1,1,1,53.885916,14.098335,0.0,0.0,0.0,0.0,1,1,0
11,'1',1,1,1,101.421,33.322019,0.0,0.0,0.0,0.0,1,1,0
13,'1',1,1,1,96.694003,20.708141,0.0,0.0,0.0,0.0,1,1,0
15,'1',1,1,1,137.77905,66.954131,0.0,0.0,0.0,0.0,1,1,0
16,'1',1,1,1,68.26199,13.249399,0.0,0.0,0.0,0.0,1,1,0
17,'1',1,1,1,55.698701,32.971004,0.0,0.0,0.0,0.0,1,1,0
19,'1',1,1,1,20.56497,2.3303032,0.0,0.0,0.0,0.0,1,1,0
21,'1',1,1,1,132.44431,16.227374,0.0,0.0,0.0,0.0,1,1,0
23,'1',1,1,1,66.087197,9.75217,0.0,0.0,0.0,0.0,1,1,0
24,'1',1,1,1,15.091557,3.3389349,0.0,0.0,0.0,0.0,1,1,0
25,'1',1,1,1,20.267453,2.4206224,0.0,0.0,0.0,0.0,1,1,0
27,'1',1,1,1,76.811192,20.380663,0.0,0.0,0.0,0.0,1,1,0
29,'1',1,1,1,95.411185,37.252243,0.0,0.0,0.0,0.0,1,1,0
30,'1',1,1,1,80.044459,1.7815937,0.0,0.0,0.0,0.0,1,1,0
33,'1',1,1,1,74.053947,17.110074,0.0,0.0,0.0,0.0,1,1,0
34,'1',1,1,1,68.27653,18.487688,0.0,0.0,0.0,0.0,1,1,0
35,'1',1,1,1,84.837857,15.799557,0.0,0.0,0.0,0.0,1,1,0
36,'1',1,1,1,57.829627,6.5098002,0.0,0.0,0.0,0.0,1,1,0
37,'1',1,1,1,80.651452,9.1150412,0.0,0.0,0.0,0.0,1,1,0
38,'1',1,1,1,28.22832,7.0621962,0.0,0.0,0.0,0.0,1,1,0
40,'1',1,1,1,70.174674,38.716944,0.0,0.0,0.0,0.0,1,1,0
41,'1',1,1,1,41.293435,13.813566,0.0,0.0,0.0,0.0,1,1,0
44,'1',1,1,1,87.481603,49.565501,0.0,0.0,0.0,0.0,1,1,0
45,'1',1,1,1,25.372345,4.7453895,0.0,0.0,0.0,0.0,1,1,0
46,'1',1,1,1,27.347662,5.1435523,0.0,0.0,0.0,0.0,1,1,0
50,'1',1,1,1,52.755241,22.457854,0.0,0.0,0.0,0.0,1,1,0
51,'1',1,1,1,39.496007,20.4148,0.0,0.0,0.0,0.0,1,1,0
54,'1',1,1,1,84.704824,27.321128,0.0,0.0,0.0,0.0,1,1,0
57,'1',1,1,1,48.577787,3.5731375,0.0,0.0,0.0,0.0,1,1,0
58,'1',1,1,1,36.90576,14.880825,0.0,0.0,0.0,0.0,1,1,0
59,'1',1,1,1,32.378996,10.983246,0.0,0.0,0.0,0.0,1,1,0
60,'1',1,1,1,19.462351,0.62403093,0.0,0.0,0.0,0.0,1,1,0
61,'1',1,1,1,10.934168,3.32624,0.0,0.0,0.0,0.0,1,1,0
62,'1',1,1,1,10.657524,6.7969678,0.0,0.0,0.0,0.0,1,1,0
65,'1',1,1,1,20.764691,10.822741,0.0,0.0,0.0,0.0,1,1,0
66,'1',1,1,1,9.6178128,3.6775947,0.0,0.0,0.0,0.0,1,1,0
69,'1',1,1,1,10.187205,5.3964269,0.0,0.0,0.0,0.0,1,1,0
70,'1',1,1,1,8.794314,0.75054007,0.0,0.0,0.0,0.0,1,1,0
72,'1',1,1,1,17.328804,5.7806229,0.0,0.0,0.0,0.0,1,1,0
74,'1',1,1,1,19.776051,1.6283517,0.0,0.0,0.0,0.0,1,1,0
75,'1',1,1,1,18.572954,6.0670595,0.0,0.0,0.0,0.0,1,1,0
78,'1',1,1,1,36.873167,6.525043,0.0,0.0,0.0,0.0,1,1,0
81,'1',1,1,1,13.65826,2.58195,0.0,0.0,0.0,0.0,1,1,0
82,'1',1,1,1,9.3311646,0.6153989,0.0,0.0,0.0,0.0,1,1,0
84,'1',1,1,1,22.336807,7.1799754,0.0,0.0,0.0,0.0,1,1,0
88,'1',1,1,1,62.323787,15.151909,0.0,0.0,0.0,0.0,1,1,0
91,'1',1,1,1,74.901861,12.026809,0.0,0.0,0.0,0.0,1,1,0
92,'1',1,1,1,42.08589,20.346128,0.0,0.0,0.0,0.0,1,1,0
93,'1',1,1,1,21.818802,5.0985974,0.0,0.0,0.0,0.0,1,1,0
94,'1',1,1,1,21.721283,3.648652,0.0,0.0,0.0,0.0,1,1,0
95,'1',1,1,1,62.865427,16.672291,0.0,0.0,0.0,0.0,1,1,0
99,'1',1,1,1,98.235809,36.458411,0.0,0.0,0.0,0.0,1,1,0
102,'1',1,1,1,116.95511,17.054959,0.0,0.0,0.0,0.0,1,1,0
103,'1',1,1,1,47.508073,2.2224676,0.0,0.0,0.0,0.0,1,1,0
104,'1',1,1,1,67.382706,24.026454,0.0,0.0,0.0,0.0,1,1,0
108,'1',1,1,1,90.14942,30.704101,0.0,0.0,0.0,0.0,1,1,0
109,'1',1,1,1,56.185605,14.827102,0.0,0.0,0.0,0.0,1,1,0
112,'1',1,1,1,95.492393,22.596854,0.0,0.0,0.0,0.0,1,1,0
113,'1',1,1,1,66.150243,7.7074239,0.0,0.0,0.0,0.0,1,1,0
114,'1',1,1,1,7.8165343,2.1829268,0.0,0.0,0.0,0.0,1,1,0
115,'1',1,1,1,45.398759,19.442903,0.0,0.0,0.0,0.0,1,1,0
116,'1',1,1,1,14.685734,3.2263164,0.0,0.0,0.0,0.0,1,1,0
117,'1',1,1,1,38.353469,1.3963308,0.0,0.0,0.0,0.0,1,1,0
118,'1',1,1,1,16.714534,3.8990377,0.0,0.0,0.0,0.0,1,1,0
119,'1',1,1,1,57.849421,15.957423,0.0,0.0,0.0,0.0,1,1,0
120,'1',1,1,1,85.348678,58.196542,0.0,0.0,0.0,0.0,1,1,0
123,'1',1,1,1,88.967138,27.582243,0.0,0.0,0.0,0.0,1,1,0
126,'1',1,1,1,67.68167,25.546247,0.0,0.0,0.0,0.0,1,1,0
127,'1',1,1,1,30.800851,7.7314369,0.0,0.0,0.0,0.0,1,1,0
128,'1',1,1,1,43.773791,10.534739,0.0,0.0,0.0,0.0,1,1,0
130,'1',1,1,1,78.280935,13.158742,0.0,0.0,0.0,0.0,1,1,0
131,'1',1,1,1,55.734553,29.653012,0.0,0.0,0.0,0.0,1,1,0
133,'1',1,1,1,79.671193,14.632081,0.0,0.0,0.0,0.0,1,1,0
137,'1',1,1,1,166.04478,21.013968,0.0,0.0,0.0,0.0,1,1,0
138,'1',1,1,1,51.194143,6.0095128,0.0,0.0,0.0,0.0,1,1,0
140,'1',1,1,1,123.20624,73.757166,0.0,0.0,0.0,0.0,1,1,0
144,'1',1,1,1,92.944622,17.736158,0.0,0.0,0.0,0.0,1,1,0
145,'1',1,1,1,53.806917,6.2364113,0.0,0.0,0.0,0.0,1,1,0
146,'1',1,1,1,45.246947,9.9239351,0.0,0.0,0.0,0.0,1,1,0
149,'1',1,1,1,106.54406,24.903915,0.0,0.0,0.0,0.0,1,1,0
150,'1',1,1,1,60.517159,7.5468008,0.0,0.0,0.0,0.0,1,1,0
153,'1',1,1,1,72.75922,8.468292,0.0,0.0,0.0,0.0,1,1,0
154,'1',1,1,1,76.703992,16.18913,0.0,0.0,0.0,0.0,1,1,0
155,'1',1,1,1,69.210844,3.0712439,0.0,0.0,0.0,0.0,1,1,0
156,'1',1,1,1,60.370842,26.848018,0.0,0.0,0.0,0.0,1,1,0
157,'1',1,1,1,55.450328,14.510097,0.0,0.0,0.0,0.0,1,1,0
158,'1',1,1,1,87.450169,20.72852,0.0,0.0,0.0,0.0,1,1,0
162,'1',1,1,1,84.954882,12.307093,0.0,0.0,0.0,0.0,1,1,0
163,'1',1,1,1,58.544197,14.220697,0.0,0.0,0.0,0.0,1,1,0
164,'1',1,1,1,32.670602,8.683268,0.0,0.0,0.0,0.0,1,1,0
167,'1',1,1,1,178.75056,108.74662,0.0,0.0,0.0,0.0,1,1,0
168,'1',1,1,1,31.977764,6.0842325,0.0,0.0,0.0,0.0,1,1,0
169,'1',1,1,1,65.636801,17.465523,0.0,0.0,0.0,0.0,1,1,0
172,'1',1,1,1,89.133149,21.048736,0.0,0.0,0.0,0.0,1,1,0
173,'1',1,1,1,66.216977,34.282309,0.0,0.0,0.0,0.0,1,1,0
176,'1',1,1,1,78.772872,9.2414586,0.0,0.0,0.0,0.0,1,1,0
177,'1',1,1,1,42.401801,11.679618,0.0,0.0,0.0,0.0,1,1,0
178,'1',1,1,1,24.055939,5.3052928,0.0,0.0,0.0,0.0,1,1,0
179,'1',1,1,1,44.179504,5.1805838,0.0,0.0,0.0,0.0,1,1,0
180,'1',1,1,1,40.799508,5.8901383,0.0,0.0,0.0,0.0,1,1,0
183,'1',1,1,1,87.486838,20.505697,0.0,0.0,0.0,0.0,1,1,0
184,'1',1,1,1,47.350462,3.3330503,0.0,0.0,0.0,0.0,1,1,0
185,'1',1,1,1,38.22964,6.5817203,0.0,0.0,0.0,0.0,1,1,0
186,'1',1,1,1,45.266293,10.695233,0.0,0.0,0.0,0.0,1,1,0
187,'1',1,1,1,42.83262,13.013662,0.0,0.0,0.0,0.0,1,1,0
190,'1',1,1,1,64.280882,14.421542,0.0,0.0,0.0,0.0,1,1,0
192,'1',1,1,1,55.930013,24.209958,0.0,0.0,0.0,0.0,1,1,0
196,'1',1,1,1,53.92939,8.9859931,0.0,0.0,0.0,0.0,1,1,0
197,'1',1,1,1,52.459165,11.690395,0.0,0.0,0.0,0.0,1,1,0
199,'1',1,1,1,34.141897,4.5974564,0.0,0.0,0.0,0.0,1,1,0
200,'1',1,1,1,43.462514,17.191401,0.0,0.0,0.0,0.0,1,1,0
201,'1',1,1,1,47.227292,10.179769,0.0,0.0,0.0,0.0,1,1,0
204,'1',1,1,1,96.231298,46.270823,0.0,0.0,0.0,0.0,1,1,0
206,'1',1,1,1,32.505155,13.353037,0.0,0.0,0.0,0.0,1,1,0
209,'1',1,1,1,36.924081,10.890489,0.0,0.0,0.0,0.0,1,1,0
213,'1',1,1,1,59.373615,23.193419,0.0,0.0,0.0,0.0,1,1,0
214,'1',1,1,1,36.067643,7.4905232,0.0,0.0,0.0,0.0,1,1,0
217,'1',1,1,1,121.47187,36.139317,0.0,0.0,0.0,0.0,1,1,0
218,'1',1,1,1,34.461059,8.6671479,0.0,0.0,0.0,0.0,1,1,0
219,'1',1,1,1,25.007794,15.553948,0.0,0.0,0.0,0.0,1,1,0
220,'1',1,1,1,54.287603,11.858203,0.0,0.0,0.0,0.0,1,1,0
221,'1',1,1,1,29.668399,11.761043,0.0,0.0,0.0,0.0,1,1,0
223,'1',1,1,1,74.859375,10.218456,0.0,0.0,0.0,0.0,1,1,0
225,'1',1,1,1,130.26641,37.172214,0.0,0.0,0.0,0.0,1,1,0
226,'1',1,1,1,53.058789,23.955957,0.0,0.0,0.0,0.0,1,1,0
227,'1',1,1,1,28.674992,10.859901,0.0,0.0,0.0,0.0,1,1,0
229,'1',1,1,1,91.962783,29.346406,0.0,0.0,0.0,0.0,1,1,0
230,'1',1,1,1,5.2545726,1.520435,0.0,0.0,0.0,0.0,1,1,0
234,'1',1,1,1,59.983321,6.731981,0.0,0.0,0.0,0.0,1,1,0
236,'1',1,1,1,36.720788,6.8648041,0.0,0.0,0.0,0.0,1,1,0
237,'1',1,1,1,54.803409,14.243196,0.0,0.0,0.0,0.0,1,1,0
238,'1',1,1,1,31.362562,7.3836808,0.0,0.0,0.0,0.0,1,1,0
239,'1',1,1,1,44.691386,6.7525217,0.0,0.0,0.0,0.0,1,1,0
241,'1',1,1,1,81.755468,10.168967,0.0,0.0,0.0,0.0,1,1,0
242,'1',1,1,1,38.34316,4.170537,0.0,0.0,0.0,0.0,1,1,0
244,'1',1,1,1,54.569414,5.3160928,0.0,0.0,0.0,0.0,1,1,0
245,'1',1,1,1,58.823811,5.6245637,0.0,0.0,0.0,0.0,1,1,0
246,'1',1,1,1,72.863181,40.890219,0.0,0.0,0.0,0.0,1,1,0
247,'1',1,1,1,73.782152,21.704717,0.0,0.0,0.0,0.0,1,1,0
250,'1',1,1,1,110.48093,3.5939508,0.0,0.0,0.0,0.0,1,1,0
253,'1',1,1,1,98.59508,17.960094,0.0,0.0,0.0,0.0,1,1,0
255,'1',1,1,1,66.576673,2.3179718,0.0,0.0,0.0,0.0,1,1,0
259,'1',1,1,1,81.571022,24.057977,0.0,0.0,0.0,0.0,1,1,0
260,'1',1,1,1,67.439679,18.685483,0.0,0.0,0.0,0.0,1,1,0
262,'1',1,1,1,78.971422,47.685394,0.0,0.0,0.0,0.0,1,1,0
263,'1',1,1,1,33.434761,11.801955,0.0,0.0,0.0,0.0,1,1,0
265,'1',1,1,1,93.771193,25.402498,0.0,0.0,0.0,0.0,1,1,0
267,'1',1,1,1,59.65539,19.822158,0.0,0.0,0.0,0.0,1,1,0
270,'1',1,1,1,76.459462,19.309605,0.0,0.0,0.0,0.0,1,1,0
271,'1',1,1,1,52.591499,14.741886,0.0,0.0,0.0,0.0,1,1,0
274,'1',1,1,1,82.345072,22.198999,0.0,0.0,0.0,0.0,1,1,0
275,'1',1,1,1,28.670082,9.8842049,0.0,0.0,0.0,0.0,1,1,0
276,'1',1,1,1,27.881369,8.8730832,0.0,0.0,0.0,0.0,1,1,0
277,'1',1,1,1,17.905493,1.8678488,0.0,0.0,0.0,0.0,1,1,0
281,'1',1,1,1,43.164471,15.107434,0.0,0.0,0.0,0.0,1,1,0
282,'1',1,1,1,16.069758,4.9493834,0.0,0.0,0.0,0.0,1,1,0
283,'1',1,1,1,19.130785,6.363135,0.0,0.0,0.0,0.0,1,1,0
285,'1',1,1,1,36.518435,3.7725076,0.0,0.0,0.0,0.0,1,1,0
286,'1',1,1,1,78.289606,27.278821,0.0,0.0,0.0,0.0,1,1,0
287,'1',1,1,1,89.021828,13.100844,0.0,0.0,0.0,0.0,1,1,0
288,'1',1,1,1,40.215065,7.02092,0.0,0.0,0.0,0.0,1,1,0
290,'1',1,1,1,46.430927,3.2955267,0.0,0.0,0.0,0.0,1,1,0
294,'1',1,1,1,38.213079,2.9929657,0.0,0.0,0.0,0.0,1,1,0
295,'1',1,1,1,75.002894,26.788628,0.0,0.0,0.0,0.0,1,1,0
298,'1',1,1,1,70.253657,19.004187,0.0,0.0,0.0,0.0,1,1,0
299,'1',1,1,1,55.254582,19.699575,0.0,0.0,0.0,0.0,1,1,0
300,'1',1,1,1,93.821053,12.611441,0.0,0.0,0.0,0.0,1,1,0
301,'1',1,1,1,37.235241,12.065877,0.0,0.0,0.0,0.0,1,1,0
302,'1',1,1,1,41.793976,9.4665022,0.0,0.0,0.0,0.0,1,1,0
303,'1',1,1,1,23.927698,12.311789,0.0,0.0,0.0,0.0,1,1,0
305,'1',1,1,1,14.910294,0.55851325,0.0,0.0,0.0,0.0,1,1,0
306,'1',1,1,1,24.104287,1.6447241,0.0,0.0,0.0,0.0,1,1,0
307,'1',1,1,1,37.168609,7.5692163,0.0,0.0,0.0,0.0,1,1,0
308,'1',1,1,1,64.569143,4.2089436,0.0,0.0,0.0,0.0,1,1,0
311,'1',1,1,1,71.734702,21.198359,0.0,0.0,0.0,0.0,1,1,0
315,'1',1,1,1,74.563087,27.929295,0.0,0.0,0.0,0.0,1,1,0
318,'1',1,1,1,47.622405,12.468899,0.0,0.0,0.0,0.0,1,1,0
320,'1',1,1,1,58.899498,19.325622,0.0,0.0,0.0,0.0,1,1,0
321,'1',1,1,1,40.946616,18.138882,0.0,0.0,0.0,0.0,1,1,0
324,'1',1,1,1,35.560557,13.45079,0.0,0.0,0.0,0.0,1,1,0
327,'1',1,1,1,39.7647,4.4217446,0.0,0.0,0.0,0.0,1,1,0
328,'1',1,1,1,11.816849,1.1381668,0.0,0.0,0.0,0.0,1,1,0
329,'1',1,1,1,12.543875,1.9635397,0.0,0.0,0.0,0.0,1,1,0
330,'1',1,1,1,41.286563,7.0742919,0.0,0.0,0.0,0.0,1,1,0
333,'1',1,1,1,64.065719,8.4494933,0.0,0.0,0.0,0.0,1,1,0
336,'1',1,1,1,93.690191,10.859859,0.0,0.0,0.0,0.0,1,1,0
338,'1',1,1,1,77.803956,9.6795897,0.0,0.0,0.0,0.0,1,1,0
339,'1',1,1,1,62.074731,10.603516,0.0,0.0,0.0,0.0,1,1,0
340,'1',1,1,1,69.825115,23.036778,0.0,0.0,0.0,0.0,1,1,0
341,'1',1,1,1,41.203382,6.3510212,0.0,0.0,0.0,0.0,1,1,0
344,'1',1,1,1,49.882586,18.114021,0.0,0.0,0.0,0.0,1,1,0
345,'1',1,1,1,12.041617,4.1217738,0.0,0.0,0.0,0.0,1,1,0
346,'1',1,1,1,10.388942,2.2374923,0.0,0.0,0.0,0.0,1,1,0
347,'1',1,1,1,22.320738,7.3059285,0.0,0.0,0.0,0.0,1,1,0
350,'1',1,1,1,84.892777,26.195384,0.0,0.0,0.0,0.0,1,1,0
...
0 / END OF LOAD DATA BEGIN FIXED SHUNT DATA
0 / END OF FIXED SHUNT DATA BEGIN GENERATOR DATA
511,'1',286.9168,62.072618,146.041,-31.848,1.036,0,286.92,0.0,1.0,0.0,0.0,1.0,1,1.0,286.917,111.868,1,1.0,0,1.0,0,1.0,0,1.0,0,1.0
512,'1',286.9168,97.488155,146.041,-31.848,1.036,0,286.92,0.0,1.0,0.0,0.0,1.0,1,1.0,286.917,136.713,1,1.0,0,1.0,0,1.0,0,1.0,0,1.0
513,'1',253.1098,91.590955,146.041,-31.848,1.036,0,286.92,0.0,1.0,0.0,0.0,1.0,1,1.0,286.917,117.88,1,1.0,0,1.0,0,1.0,0,1.0,0,1.0
514,'1',286.9168,90.7663,146.041,-31.848,1.036,0,286.92,0.0,1.0,0.0,0.0,1.0,1,1.0,286.917,119.916,1,1.0,0,1.0,0,1.0,0,1.0,0,1.0
515,'1',229.3998,100.10718,146.041,-31.848,1.036,0,286.92,0.0,1.0,0.0,0.0,1.0,1,1.0,286.917,143.131,1,1.0,0,1.0,0,1.0,0,1.0,0,1.0
516,'1',286.9168,62.996957,146.041,-31.848,1.036,0,286.92,0.0,1.0,0.0,0.0,1.0,1,1.0,286.917,65.487,1,1.0,0,1.0,0,1.0,0,1.0,0,1.0
518,'1',26.499981,13.488,13.488,-2.942,1.0362632,0,26.5,0.0,1.0,0.0,0.0,1.0,1,1.0,26.5,8.564,1,1.0,0,1.0,0,1.0,0,1.0,0,1.0
522,'1',818.59942,262.15153,301.245,-67.125,1.0725,0,818.6,0.0,1.0,0.0,0.0,1.0,1,1.0,818.6,393.254,1,1.0,0,1.0,0,1.0,0,1.0,0,1.0
523,'1',818.59942,261.22778,301.245,-67.125,1.075,0,818.6,0.0,1.0,0.0,0.0,1.0,1,1.0,818.6,92.398,1,1.0,0,1.0,0,1.0,0,1.0,0,1.0
525,'1',5.933,0.0,3.02,-0.659,1.0443364,0,5.93,0.0,1.0,0.0,0.0,1.0,0,1.0,5.933,1.3,1,1.0,0,1.0,0,1.0,0,1.0,0,1.0
525,'2',5.933,0.0,3.02,-0.659,1.0443364,0,5.93,0.0,1.0,0.0,0.0,1.0,0,1.0,5.933,1.833,1,1.0,0,1.0,0,1.0,0,1.0,0,1.0
525,'3',5.933,0.0,3.02,-0.659,1.0443364,0,5.93,0.0,1.0,0.0,0.0,1.0,0,1.0,5.933,2.076,1,1.0,0,1.0,0,1.0,0,1.0,0,1.0
525,'4',5.933,0.0,3.02,-0.659,1.0443364,0,5.93,0.0,1.0,0.0,0.0,1.0,0,1.0,5.933,1.712,1,1.0,0,1.0,0,1.0,0,1.0,0,1.0
525,'5',5.933,0.0,3.02,-0.659,1.0443364,0,5.93,0.0,1.0,0.0,0.0,1.0,0,1.0,5.933,1.58,1,1.0,0,1.0,0,1.0,0,1.0,0,1.0
525,'6',5.933,0.0,3.02,-0.659,1.0443364,0,5.93,0.0,1.0,0.0,0.0,1.0,0,1.0,5.933,1.676,1,1.0,0,1.0,0,1.0,0,1.0,0,1.0
529,'1',244.8,0.0,124.603,-27.173,1.0576392,0,244.8,0.0,1.0,0.0,0.0,1.0,0,1.0,244.8,40.619,1,1.0,0,1.0,0,1.0,0,1.0,0,1.0
530,'1',244.79983,99.044633,124.603,-27.173,1.0045,0,244.8,0.0,1.0,0.0,0.0,1.0,1,1.0,244.8,50.102,1,1.0,0,1.0,0,1.0,0,1.0,0,1.0
531,'1',244.79983,121.15384,124.603,-27.173,1.0045,0,244.8,0.0,1.0,0.0,0.0,1.0,1,1.0,244.8,103.321,1,1.0,0,1.0,0,1.0,0,1.0,0,1.0
532,'1',244.79983,106.17992,124.603,-27.173,1.0045,0,244.8,0.0,1.0,0.0,0.0,1.0,1,1.0,244.8,92.537,1,1.0,0,1.0,0,1.0,0,1.0,0,1.0
533,'1',244.79983,96.867721,124.603,-27.173,1.0045,0,244.8,0.0,1.0,0.0,0.0,1.0,1,1.0,244.8,82.618,1,1.0,0,1.0,0,1.0,0,1.0,0,1.0
536,'1',401.99972,-49.044,187.332,-49.044,1.0415633,0,402.0,0.0,1.0,0.0,0.0,1.0,1,1.0,402.0,150.56,1,1.0,0,1.0,0,1.0,0,1.0,0,1.0
537,'1',401.99972,-49.044,187.332,-49.044,1.0442305,0,402.0,0.0,1.0,0.0,0.0,1.0,1,1.0,402.0,171.138,1,1.0,0,1.0,0,1.0,0,1.0,0,1.0
539,'1',3.6669974,-0.447,1.709,-0.447,1.0557867,0,3.67,0.0,1.0,0.0,0.0,1.0,1,1.0,3.667,0.435,1,1.0,0,1.0,0,1.0,0,1.0,0,1.0
539,'2',3.6669974,-0.447,1.709,-0.447,1.0557867,0,3.67,0.0,1.0,0.0,0.0,1.0,1,1.0,3.667,1.28,1,1.0,0,1.0,0,1.0,0,1.0,0,1.0
539,'3',3.6669974,-0.447,1.709,-0.447,1.0557867,0,3.67,0.0,1.0,0.0,0.0,1.0,1,1.0,3.667,1.817,1,1.0,0,1.0,0,1.0,0,1.0,0,1.0
539,'4',3.6669974,-0.447,1.709,-0.447,1.0557867,0,3.67,0.0,1.0,0.0,0.0,1.0,1,1.0,3.667,0.899,1,1.0,0,1.0,0,1.0,0,1.0,0,1.0
539,'5',3.667,0.0,1.709,-0.447,1.0557867,0,3.67,0.0,1.0,0.0,0.0,1.0,0,1.0,3.667,1.289,1,1.0,0,1.0,0,1.0,0,1.0,0,1.0
539,'6',3.667,0.0,1.709,-0.447,1.0557867,0,3.67,0.0,1.0,0.0,0.0,1.0,0,1.0,3.667,1.159,1,1.0,0,1.0,0,1.0,0,1.0,0,1.0
542,'1',173.73288,88.43,88.43,-19.284,1.0401107,0,173.73,0.0,1.0,0.0,0.0,1.0,1,1.0,173.733,56.291,1,1.0,0,1.0,0,1.0,0,1.0,0,1.0
543,'1',173.73288,88.43,88.43,-19.284,1.0367671,0,173.73,0.0,1.0,0.0,0.0,1.0,1,1.0,173.733,50.048,1,1.0,0,1.0,0,1.0,0,1.0,0,1.0
544,'1',173.73288,88.43,88.43,-19.284,1.0376019,0,173.73,0.0,1.0,0.0,0.0,1.0,1,1.0,173.733,80.656,1,1.0,0,1.0,0,1.0,0,1.0,0,1.0
545,'1',173.73288,88.43,88.43,-19.284,1.041249,0,173.73,0.0,1.0,0.0,0.0,1.0,1,1.0,173.733,73.088,1,1.0,0,1.0,0,1.0,0,1.0,0,1.0
546,'1',173.73288,88.43,88.43,-19.284,1.0349938,0,173.73,0.0,1.0,0.0,0.0,1.0,1,1.0,173.733,59.116,1,1.0,0,1.0,0,1.0,0,1.0,0,1.0
547,'1',173.73288,88.43,88.43,-19.284,1.0364946,0,173.73,0.0,1.0,0.0,0.0,1.0,1,1.0,173.733,49.273,1,1.0,0,1.0,0,1.0,0,1.0,0,1.0
551,'1',1079.9992,80.319989,397.44,-88.56,1.045,0,1080.0,0.0,1.0,0.0,0.0,1.0,1,1.0,1080.0,168.179,1,1.0,0,1.0,0,1.0,0,1.0,0,1.0
552,'1',1079.9992,80.503284,397.44,-88.56,1.045,0,1080.0,0.0,1.0,0.0,0.0,1.0,1,1.0,1080.0,172.722,1,1.0,0,1.0,0,1.0,0,1.0,0,1.0
554,'1',68.399952,31.377927,34.816,-7.592,1.04,0,68.4,0.0,1.0,0.0,0.0,1.0,1,1.0,68.4,31.465,1,1.0,0,1.0,0,1.0,0,1.0,0,1.0
554,'2',68.399952,31.377927,34.816,-7.592,1.04,0,68.4,0.0,1.0,0.0,0.0,1.0,1,1.0,68.4,18.691,1,1.0,0,1.0,0,1.0,0,1.0,0,1.0
554,'3',68.399952,31.377927,34.816,-7.592,1.04,0,68.4,0.0,1.0,0.0,0.0,1.0,1,1.0,68.4,19.594,1,1.0,0,1.0,0,1.0,0,1.0,0,1.0
554,'4',68.399952,31.377927,34.816,-7.592,1.04,0,68.4,0.0,1.0,0.0,0.0,1.0,1,1.0,68.4,27.758,1,1.0,0,1.0,0,1.0,0,1.0,0,1.0
554,'5',68.399952,31.377927,34.816,-7.592,1.04,0,68.4,0.0,1.0,0.0,0.0,1.0,1,1.0,68.4,26.86,1,1.0,0,1.0,0,1.0,0,1.0,0,1.0
554,'6',68.399952,31.377927,34.816,-7.592,1.04,0,68.4,0.0,1.0,0.0,0.0,1.0,1,1.0,68.4,13.872,1,1.0,0,1.0,0,1.0,0,1.0,0,1.0
558,'1',136.7999,69.631,69.631,-15.185,1.0301099,0,136.8,0.0,1.0,0.0,0.0,1.0,1,1.0,136.8,14.056,1,1.0,0,1.0,0,1.0,0,1.0,0,1.0
559,'1',136.7999,69.631,69.631,-15.185,1.0323734,0,136.8,0.0,1.0,0.0,0.0,1.0,1,1.0,136.8,64.405,1,1.0,0,1.0,0,1.0,0,1.0,0,1.0
560,'1',136.7999,69.631,69.631,-15.185,1.0308965,0,136.8,0.0,1.0,0.0,0.0,1.0,1,1.0,136.8,41.032,1,1.0,0,1.0,0,1.0,0,1.0,0,1.0
561,'1',136.7999,69.631,69.631,-15.185,1.03381,0,136.8,0.0,1.0,0.0,0.0,1.0,1,1.0,136.8,28.648,1,1.0,0,1.0,0,1.0,0,1.0,0,1.0
562,'1',136.7999,69.631,69.631,-15.185,1.0319591,0,136.8,0.0,1.0,0.0,0.0,1.0,1,1.0,136.8,20.963,1,1.0,0,1.0,0,1.0,0,1.0,0,1.0
563,'1',136.7999,69.631,69.631,-15.185,1.0331334,0,136.8,0.0,1.0,0.0,0.0,1.0,1,1.0,136.8,36.541,1,1.0,0,1.0,0,1.0,0,1.0,0,1.0
567,'1',312.5295,307.19734,361.645,-78.865,1.018,0,710.5,0.0,1.0,0.0,0.0,1.0,1,1.0,710.5,213.037,1,1.0,0,1.0,0,1.0,0,1.0,0,1.0
568,'1',361.8595,324.67973,361.645,-78.865,1.018,0,710.5,0.0,1.0,0.0,0.0,1.0,1,1.0,710.5,129.441,1,1.0,0,1.0,0,1.0,0,1.0,0,1.0
569,'1',411.0495,301.04998,361.645,-78.865,1.018,0,710.5,0.0,1.0,0.0,0.0,1.0,1,1.0,710.5,336.192,1,1.0,0,1.0,0,1.0,0,1.0,0,1.0
570,'1',329.8895,315.03119,361.645,-78.865,1.018,0,710.5,0.0,1.0,0.0,0.0,1.0,1,1.0,710.5,76.15,1,1.0,0,1.0,0,1.0,0,1.0,0,1.0
571,'1',571.709,0.0,361.645,-78.865,1.0548025,0,710.5,0.0,1.0,0.0,0.0,1.0,0,1.0,710.5,73.471,1,1.0,0,1.0,0,1.0,0,1.0,0,1.0
572,'1',418.146,0.0,361.645,-78.865,1.0548025,0,710.5,0.0,1.0,0.0,0.0,1.0,0,1.0,710.5,216.649,1,1.0,0,1.0,0,1.0,0,1.0,0,1.0
574,'1',123.99991,8.920586,57.784,-15.128,1.018,0,124.0,0.0,1.0,0.0,0.0,1.0,1,1.0,124.0,57.005,1,1.0,0,1.0,0,1.0,0,1.0,0,1.0
575,'1',123.99991,8.3727175,57.784,-15.128,1.018,0,124.0,0.0,1.0,0.0,0.0,1.0,1,1.0,124.0,47.6,1,1.0,0,1.0,0,1.0,0,1.0,0,1.0
576,'1',123.99991,8.7664489,57.784,-15.128,1.018,0,124.0,0.0,1.0,0.0,0.0,1.0,1,1.0,124.0,50.185,1,1.0,0,1.0,0,1.0,0,1.0,0,1.0
577,'1',123.99991,9.4639215,57.784,-15.128,1.018,0,124.0,0.0,1.0,0.0,0.0,1.0,1,1.0,124.0,12.7,1,1.0,0,1.0,0,1.0,0,1.0,0,1.0
578,'1',123.99991,10.387857,57.784,-15.128,1.018,0,124.0,0.0,1.0,0.0,0.0,1.0,1,1.0,124.0,17.706,1,1.0,0,1.0,0,1.0,0,1.0,0,1.0
579,'1',55.829212,10.576344,57.784,-15.128,1.018,0,124.0,0.0,1.0,0.0,0.0,1.0,1,1.0,124.0,36.442,1,1.0,0,1.0,0,1.0,0,1.0,0,1.0
581,'1',21.082985,9.825,9.825,-2.572,1.0386844,0,21.08,0.0,1.0,0.0,0.0,1.0,1,1.0,21.083,5.483,1,1.0,0,1.0,0,1.0,0,1.0,0,1.0
582,'1',21.082985,-2.3515152,9.825,-2.572,1.045,0,21.08,0.0,1.0,0.0,0.0,1.0,1,1.0,21.083,6.229,1,1.0,0,1.0,0,1.0,0,1.0,0,1.0
582,'2',21.082985,-2.3515152,9.825,-2.572,1.045,0,21.08,0.0,1.0,0.0,0.0,1.0,1,1.0,21.083,6.254,1,1.0,0,1.0,0,1.0,0,1.0,0,1.0
582,'3',21.082985,-2.3515152,9.825,-2.572,1.045,0,21.08,0.0,1.0,0.0,0.0,1.0,1,1.0,21.083,7.482,1,1.0,0,1.0,0,1.0,0,1.0,0,1.0
582,'4',21.082985,-2.3515152,9.825,-2.572,1.045,0,21.08,0.0,1.0,0.0,0.0,1.0,1,1.0,21.083,4.317,1,1.0,0,1.0,0,1.0,0,1.0,0,1.0
582,'5',21.082985,-2.3515152,9.825,-2.572,1.045,0,21.08,0.0,1.0,0.0,0.0,1.0,1,1.0,21.083,7.684,1,1.0,0,1.0,0,1.0,0,1.0,0,1.0
587,'1',180.99987,92.129,92.129,-20.091,1.0226883,0,181.0,0.0,1.0,0.0,0.0,1.0,1,1.0,181.0,57.044,1,1.0,0,1.0,0,1.0,0,1.0,0,1.0
588,'1',154.54242,76.849055,92.129,-20.091,0.99903614,0,181.0,0.0,1.0,0.0,0.0,1.0,0,1.0,181.0,65.155,1,1.0,0,1.0,0,1.0,0,1.0,0,1.0
590,'1',15.699989,3.3387325,7.991,-1.743,1.042,0,15.7,0.0,1.0,0.0,0.0,1.0,1,1.0,15.7,2.126,1,1.0,0,1.0,0,1.0,0,1.0,0,1.0
590,'2',15.699989,3.3387325,7.991,-1.743,1.042,0,15.7,0.0,1.0,0.0,0.0,1.0,1,1.0,15.7,5.004,1,1.0,0,1.0,0,1.0,0,1.0,0,1.0
594,'1',323.74977,128.41782,164.789,-35.936,1.0245,0,323.75,0.0,1.0,0.0,0.0,1.0,1,1.0,323.75,142.567,1,1.0,0,1.0,0,1.0,0,1.0,0,1.0
595,'1',323.75,0.0,164.789,-35.936,1.0425,0,323.75,0.0,1.0,0.0,0.0,1.0,0,1.0,323.75,54.778,1,1.0,0,1.0,0,1.0,0,1.0,0,1.0
596,'1',323.74977,105.6717,164.789,-35.936,1.0245,0,323.75,0.0,1.0,0.0,0.0,1.0,1,1.0,323.75,147.206,1,1.0,0,1.0,0,1.0,0,1.0,0,1.0
597,'1',323.74977,88.105128,164.789,-35.936,1.0245,0,323.75,0.0,1.0,0.0,0.0,1.0,1,1.0,323.75,46.804,1,1.0,0,1.0,0,1.0,0,1.0,0,1.0
599,'1',6.8,0.0,3.169,-0.83,1.0361879,0,6.8,0.0,1.0,0.0,0.0,1.0,0,1.0,6.8,3.324,1,1.0,0,1.0,0,1.0,0,1.0,0,1.0
599,'2',6.8,0.0,3.169,-0.83,1.0361879,0,6.8,0.0,1.0,0.0,0.0,1.0,0,1.0,6.8,0.698,1,1.0,0,1.0,0,1.0,0,1.0,0,1.0
599,'3',6.8,0.0,3.169,-0.83,1.0361879,0,6.8,0.0,1.0,0.0,0.0,1.0,0,1.0,6.8,0.905,1,1.0,0,1.0,0,1.0,0,1.0,0,1.0
599,'4',6.8,0.0,3.169,-0.83,1.0361879,0,6.8,0.0,1.0,0.0,0.0,1.0,0,1.0,6.8,1.101,1,1.0,0,1.0,0,1.0,0,1.0,0,1.0
599,'5',6.8,0.0,3.169,-0.83,1.0361879,0,6.8,0.0,1.0,0.0,0.0,1.0,0,1.0,6.8,3.201,1,1.0,0,1.0,0,1.0,0,1.0,0,1.0
599,'6',6.7999952,3.169,3.169,-0.83,1.0361879,0,6.8,0.0,1.0,0.0,0.0,1.0,1,1.0,6.8,2.569,1,1.0,0,1.0,0,1.0,0,1.0,0,1.0
1208,'1',11.2,0.0,5.701,-1.243,1.0464074,0,11.2,0.0,1.0,0.0,0.0,1.0,0,1.0,11.2,2.558,1,1.0,0,1.0,0,1.0,0,1.0,0,1.0
1208,'2',11.2,0.0,5.701,-1.243,1.0464074,0,11.2,0.0,1.0,0.0,0.0,1.0,0,1.0,11.2,3.605,1,1.0,0,1.0,0,1.0,0,1.0,0,1.0
1212,'1',142.4999,72.532,72.532,-15.818,1.0596772,0,142.5,0.0,1.0,0.0,0.0,1.0,1,1.0,142.5,40.985,1,1.0,0,1.0,0,1.0,0,1.0,0,1.0
1213,'1',142.4999,72.532,72.532,-15.818,1.0565341,0,142.5,0.0,1.0,0.0,0.0,1.0,1,1.0,142.5,55.372,1,1.0,0,1.0,0,1.0,0,1.0,0,1.0
1214,'1',142.4999,70.098822,72.532,-15.818,1.0725,0,142.5,0.0,1.0,0.0,0.0,1.0,1,1.0,142.5,30.813,1,1.0,0,1.0,0,1.0,0,1.0,0,1.0
1216,'1',74.283449,-9.657,44.283,-9.657,1.0493024,0,87.0,0.0,1.0,0.0,0.0,1.0,0,1.0,87.0,27.249,1,1.0,0,1.0,0,1.0,0,1.0,0,1.0
1216,'2',86.999939,-9.657,44.283,-9.657,1.0493024,0,87.0,0.0,1.0,0.0,0.0,1.0,1,1.0,87.0,17.194,1,1.0,0,1.0,0,1.0,0,1.0,0,1.0
1219,'1',84.199941,32.247801,39.237,-10.272,1.0425,0,84.2,0.0,1.0,0.0,0.0,1.0,1,1.0,84.2,27.937,1,1.0,0,1.0,0,1.0,0,1.0,0,1.0
1219,'2',84.199941,32.247801,39.237,-10.272,1.0425,0,84.2,0.0,1.0,0.0,0.0,1.0,1,1.0,84.2,9.3,1,1.0,0,1.0,0,1.0,0,1.0,0,1.0
1219,'3',84.199941,32.247801,39.237,-10.272,1.0425,0,84.2,0.0,1.0,0.0,0.0,1.0,1,1.0,84.2,10.695,1,1.0,0,1.0,0,1.0,0,1.0,0,1.0
1219,'4',84.199941,32.247801,39.237,-10.272,1.0425,0,84.2,0.0,1.0,0.0,0.0,1.0,1,1.0,84.2,23.64,1,1.0,0,1.0,0,1.0,0,1.0,0,1.0
1219,'5',84.199941,32.247801,39.237,-10.272,1.0425,0,84.2,0.0,1.0,0.0,0.0,1.0,1,1.0,84.2,29.358,1,1.0,0,1.0,0,1.0,0,1.0,0,1.0
1219,'6',84.199941,32.247801,39.237,-10.272,1.0425,0,84.2,0.0,1.0,0.0,0.0,1.0,1,1.0,84.2,26.019,1,1.0,0,1.0,0,1.0,0,1.0,0,1.0
1226,'1',198.87986,101.23,101.23,-22.076,1.0161187,0,198.88,0.0,1.0,0.0,0.0,1.0,1,1.0,198.88,47.086,1,1.0,0,1.0,0,1.0,0,1.0,0,1.0
1227,'1',141.77986,101.23,101.23,-22.076,1.0179243,0,198.88,0.0,1.0,0.0,0.0,1.0,1,1.0,198.88,56.121,1,1.0,0,1.0,0,1.0,0,1.0,0,1.0
1228,'1',116.65986,101.23,101.23,-22.076,1.0184859,0,198.88,0.0,1.0,0.0,0.0,1.0,1,1.0,198.88,61.855,1,1.0,0,1.0,0,1.0,0,1.0,0,1.0
1229,'1',173.54986,101.23,101.23,-22.076,1.019862,0,198.88,0.0,1.0,0.0,0.0,1.0,1,1.0,198.88,72.249,1,1.0,0,1.0,0,1.0,0,1.0,0,1.0
1230,'1',125.68986,101.23,101.23,-22.076,1.0179372,0,198.88,0.0,1.0,0.0,0.0,1.0,1,1.0,198.88,76.895,1,1.0,0,1.0,0,1.0,0,1.0,0,1.0
1232,'1',5.35,0.0,2.723,-0.594,1.0279969,0,5.35,0.0,1.0,0.0,0.0,1.0,0,1.0,5.35,2.222,1,1.0,0,1.0,0,1.0,0,1.0,0,1.0
1233,'1',5.35,0.0,2.723,-0.594,1.0474554,0,5.35,0.0,1.0,0.0,0.0,1.0,0,1.0,5.35,2.517,1,1.0,0,1.0,0,1.0,0,1.0,0,1.0
1237,'1',175.28986,71.155951,104.701,-22.833,1.0585,0,205.7,0.0,1.0,0.0,0.0,1.0,1,1.0,205.7,53.667,1,1.0,0,1.0,0,1.0,0,1.0,0,1.0
1238,'1',170.73986,31.626212,104.701,-22.833,1.0585,0,205.7,0.0,1.0,0.0,0.0,1.0,1,1.0,205.7,30.887,1,1.0,0,1.0,0,1.0,0,1.0,0,1.0
1243,'1',113.85986,101.495,101.495,-22.133,1.0209029,0,199.4,0.0,1.0,0.0,0.0,1.0,1,1.0,199.4,92.481,1,1.0,0,1.0,0,1.0,0,1.0,0,1.0
1244,'1',168.94986,101.495,101.495,-22.133,1.0221303,0,199.4,0.0,1.0,0.0,0.0,1.0,1,1.0,199.4,47.17,1,1.0,0,1.0,0,1.0,0,1.0,0,1.0
1246,'1',42.0,0.0,21.378,-4.662,1.0267328,0,42.0,0.0,1.0,0.0,0.0,1.0,0,1.0,42.0,17.993,1,1.0,0,1.0,0,1.0,0,1.0,0,1.0
1251,'1',180.39987,82.926619,91.824,-20.024,1.0475,0,180.4,0.0,1.0,0.0,0.0,1.0,1,1.0,180.4,18.965,1,1.0,0,1.0,0,1.0,0,1.0,0,1.0
1252,'1',150.03987,91.824,91.824,-20.024,1.0501704,0,180.4,0.0,1.0,0.0,0.0,1.0,1,1.0,180.4,28.596,1,1.0,0,1.0,0,1.0,0,1.0,0,1.0
1253,'1',180.39987,91.824,91.824,-20.024,1.0487951,0,180.4,0.0,1.0,0.0,0.0,1.0,1,1.0,180.4,62.389,1,1.0,0,1.0,0,1.0,0,1.0,0,1.0
1256,'1',270.70553,125.28543,170.888,-37.266,1.054,0,335.73,0.0,1.0,0.0,0.0,1.0,1,1.0,335.733,84.582,1,1.0,0,1.0,0,1.0,0,1.0,0,1.0
1257,'1',253.14976,42.747984,170.888,-37.266,1.054,0,335.73,0.0,1.0,0.0,0.0,1.0,1,1.0,335.733,129.272,1,1.0,0,1.0,0,1.0,0,1.0,0,1.0
1258,'1',223.90976,40.824202,170.888,-37.266,1.054,0,335.73,0.0,1.0,0.0,0.0,1.0,1,1.0,335.733,56.164,1,1.0,0,1.0,0,1.0,0,1.0,0,1.0
1259,'1',229.61976,40.703946,170.888,-37.266,1.054,0,335.73,0.0,1.0,0.0,0.0,1.0,1,1.0,335.733,70.447,1,1.0,0,1.0,0,1.0,0,1.0,0,1.0
1260,'1',220.38976,66.108911,170.888,-37.266,1.054,0,335.73,0.0,1.0,0.0,0.0,1.0,1,1.0,335.733,47.366,1,1.0,0,1.0,0,1.0,0,1.0,0,1.0
1261,'1',286.65904,53.961587,170.888,-37.266,1.0397086,0,335.73,0.0,1.0,0.0,0.0,1.0,0,1.0,335.733,80.769,1,1.0,0,1.0,0,1.0,0,1.0,0,1.0
1262,'1',1.7,0.0,0.865,-0.189,1.0397086,0,1.7,0.0,1.0,0.0,0.0,1.0,0,1.0,1.7,0.215,1,1.0,0,1.0,0,1.0,0,1.0,0,1.0
1266,'1',117.172,0.0,216.457,-56.669,1.0417759,0,464.5,0.0,1.0,0.0,0.0,1.0,0,1.0,464.5,117.172,1,1.0,0,1.0,0,1.0,0,1.0,0,1.0
1267,'1',81.768,20.624337,216.457,-56.669,1.045,0,464.5,0.0,1.0,0.0,0.0,1.0,1,1.0,464.5,81.768,1,1.0,0,1.0,0,1.0,0,1.0,0,1.0
1271,'1',142.18987,33.058437,92.638,-20.202,1.0,0,182.0,0.0,1.0,0.0,0.0,1.0,1,1.0,182.0,82.486,1,1.0,0,1.0,0,1.0,0,1.0,0,1.0
1272,'1',140.718,10.617874,92.638,-20.202,1.0,0,182.0,0.0,1.0,0.0,0.0,1.0,1,1.0,182.0,78.655,1,1.0,0,1.0,0,1.0,0,1.0,0,1.0
1273,'1',181.99987,33.726104,92.638,-20.202,1.0,0,182.0,0.0,1.0,0.0,0.0,1.0,1,1.0,182.0,40.613,1,1.0,0,1.0,0,1.0,0,1.0,0,1.0
1274,'1',113.58987,42.097426,92.638,-20.202,1.0,0,182.0,0.0,1.0,0.0,0.0,1.0,1,1.0,182.0,67.977,1,1.0,0,1.0,0,1.0,0,1.0,0,1.0
1277,'1',45.533,0.0,23.176,-5.054,1.0500132,0,45.53,0.0,1.0,0.0,0.0,1.0,0,1.0,45.533,22.712,1,1.0,0,1.0,0,1.0,0,1.0,0,1.0
1277,'2',45.533,0.0,23.176,-5.054,1.0500132,0,45.53,0.0,1.0,0.0,0.0,1.0,0,1.0,45.533,4.714,1,1.0,0,1.0,0,1.0,0,1.0,0,1.0
1277,'3',45.533,0.0,23.176,-5.054,1.0500132,0,45.53,0.0,1.0,0.0,0.0,1.0,0,1.0,45.533,8.36,1,1.0,0,1.0,0,1.0,0,1.0,0,1.0
1281,'1',250.59982,103.22838,127.555,-27.817,1.009,0,250.6,0.0,1.0,0.0,0.0,1.0,1,1.0,250.6,39.394,1,1.0,0,1.0,0,1.0,0,1.0,0,1.0
1282,'1',218.71982,112.37002,127.555,-27.817,1.009,0,250.6,0.0,1.0,0.0,0.0,1.0,1,1.0,250.6,91.175,1,1.0,0,1.0,0,1.0,0,1.0,0,1.0
1283,'1',192.15982,113.90548,127.555,-27.817,1.009,0,250.6,0.0,1.0,0.0,0.0,1.0,1,1.0,250.6,104.51,1,1.0,0,1.0,0,1.0,0,1.0,0,1.0
1284,'1',199.32982,107.32425,127.555,-27.817,1.009,0,250.6,0.0,1.0,0.0,0.0,1.0,1,1.0,250.6,122.414,1,1.0,0,1.0,0,1.0,0,1.0,0,1.0
1285,'1',196.20287,113.91366,127.555,-27.817,1.009,0,250.6,0.0,1.0,0.0,0.0,1.0,1,1.0,250.6,60.398,1,1.0,0,1.0,0,1.0,0,1.0,0,1.0
1289,'1',149.78985,34.823688,109.299,-23.835,1.0585,0,214.73,0.0,1.0,0.0,0.0,1.0,1,1.0,214.733,106.491,1,1.0,0,1.0,0,1.0,0,1.0,0,1.0
1290,'1',214.73285,95.148294,109.299,-23.835,1.0585,0,214.73,0.0,1.0,0.0,0.0,1.0,1,1.0,214.733,100.357,1,1.0,0,1.0,0,1.0,0,1.0,0,1.0
1291,'1',127.92985,56.712045,109.299,-23.835,1.0585,0,214.73,0.0,1.0,0.0,0.0,1.0,1,1.0,214.733,70.061,1,1.0,0,1.0,0,1.0,0,1.0,0,1.0
1295,'1',124.809,164.789,164.789,-35.936,1.0333676,0,323.75,0.0,1.0,0.0,0.0,1.0,1,1.0,323.75,124.809,1,1.0,0,1.0,0,1.0,0,1.0,0,1.0
1296,'1',158.99,164.789,164.789,-35.936,1.0317254,0,323.75,0.0,1.0,0.0,0.0,1.0,1,1.0,323.75,158.99,1,1.0,0,1.0,0,1.0,0,1.0,0,1.0
1297,'1',201.75977,164.789,164.789,-35.936,1.0346523,0,323.75,0.0,1.0,0.0,0.0,1.0,1,1.0,323.75,120.44,1,1.0,0,1.0,0,1.0,0,1.0,0,1.0
1298,'1',174.75977,164.789,164.789,-35.936,1.0365498,0,323.75,0.0,1.0,0.0,0.0,1.0,1,1.0,323.75,137.507,1,1.0,0,1.0,0,1.0,0,1.0,0,1.0
1300,'1',2.9,0.0,1.476,-0.322,1.0338394,0,2.9,0.0,1.0,0.0,0.0,1.0,0,1.0,2.9,1.047,1,1.0,0,1.0,0,1.0,0,1.0,0,1.0
1300,'2',69.899951,35.579,35.579,-7.759,1.0338394,0,69.9,0.0,1.0,0.0,0.0,1.0,1,1.0,69.9,30.179,1,1.0,0,1.0,0,1.0,0,1.0,0,1.0
1300,'3',69.899951,35.579,35.579,-7.759,1.0338394,0,69.9,0.0,1.0,0.0,0.0,1.0,1,1.0,69.9,28.041,1,1.0,0,1.0,0,1.0,0,1.0,0,1.0
1300,'4',69.899951,35.579,35.579,-7.759,1.0338394,0,69.9,0.0,1.0,0.0,0.0,1.0,1,1.0,69.9,10.434,1,1.0,0,1.0,0,1.0,0,1.0,0,1.0
1300,'5',69.899951,35.579,35.579,-7.759,1.0338394,0,69.9,0.0,1.0,0.0,0.0,1.0,1,1.0,69.9,23.393,1,1.0,0,1.0,0,1.0,0,1.0,0,1.0
1301,'1',2.9,0.0,1.476,-0.322,1.0323407,0,2.9,0.0,1.0,0.0,0.0,1.0,0,1.0,2.9,0.497,1,1.0,0,1.0,0,1.0,0,1.0,0,1.0
1303,'1',155.73984,70.85273,116.782,-25.467,1.04,0,229.43,0.0,1.0,0.0,0.0,1.0,1,1.0,229.433,45.211,1,1.0,0,1.0,0,1.0,0,1.0,0,1.0
1303,'2',158.37984,70.85273,116.782,-25.467,1.04,0,229.43,0.0,1.0,0.0,0.0,1.0,1,1.0,229.433,51.807,1,1.0,0,1.0,0,1.0,0,1.0,0,1.0
1303,'3',229.43284,70.85273,116.782,-25.467,1.04,0,229.43,0.0,1.0,0.0,0.0,1.0,1,1.0,229.433,88.194,1,1.0,0,1.0,0,1.0,0,1.0,0,1.0
1308,'1',175.79988,-19.514,89.482,-19.514,1.0361176,0,175.8,0.0,1.0,0.0,0.0,1.0,1,1.0,175.8,61.666,1,1.0,0,1.0,0,1.0,0,1.0,0,1.0
1309,'1',175.79988,-19.514,89.482,-19.514,1.0367638,0,175.8,0.0,1.0,0.0,0.0,1.0,1,1.0,175.8,46.674,1,1.0,0,1.0,0,1.0,0,1.0,0,1.0
1310,'1',175.79988,-19.514,89.482,-19.514,1.0357937,0,175.8,0.0,1.0,0.0,0.0,1.0,1,1.0,175.8,75.957,1,1.0,0,1.0,0,1.0,0,1.0,0,1.0
1311,'1',175.79988,-19.514,89.482,-19.514,1.0326442,0,175.8,0.0,1.0,0.0,0.0,1.0,1,1.0,175.8,23.848,1,1.0,0,1.0,0,1.0,0,1.0,0,1.0
1313,'1',1.1999992,-0.075580246,0.559,-0.146,1.04,0,1.2,0.0,1.0,0.0,0.0,1.0,1,1.0,1.2,0.38,1,1.0,0,1.0,0,1.0,0,1.0,0,1.0
1313,'10',8.333,0.0,3.883,-1.017,1.04,0,8.33,0.0,1.0,0.0,0.0,1.0,0,1.0,8.333,1.146,1,1.0,0,1.0,0,1.0,0,1.0,0,1.0
1313,'2',1.1999992,-0.075580246,0.559,-0.146,1.04,0,1.2,0.0,1.0,0.0,0.0,1.0,1,1.0,1.2,0.418,1,1.0,0,1.0,0,1.0,0,1.0,0,1.0
1313,'3',2.4999982,-0.15816732,1.165,-0.305,1.04,0,2.5,0.0,1.0,0.0,0.0,1.0,1,1.0,2.5,0.399,1,1.0,0,1.0,0,1.0,0,1.0,0,1.0
1313,'4',2.4999982,-0.15816732,1.165,-0.305,1.04,0,2.5,0.0,1.0,0.0,0.0,1.0,1,1.0,2.5,0.615,1,1.0,0,1.0,0,1.0,0,1.0,0,1.0
1313,'5',8.3329941,-0.52755774,3.883,-1.017,1.04,0,8.33,0.0,1.0,0.0,0.0,1.0,1,1.0,8.333,2.53,1,1.0,0,1.0,0,1.0,0,1.0,0,1.0
1313,'6',8.3329941,-0.52755774,3.883,-1.017,1.04,0,8.33,0.0,1.0,0.0,0.0,1.0,1,1.0,8.333,2.739,1,1.0,0,1.0,0,1.0,0,1.0,0,1.0
1313,'7',8.3329941,-0.52755774,3.883,-1.017,1.04,0,8.33,0.0,1.0,0.0,0.0,1.0,1,1.0,8.333,3.593,1,1.0,0,1.0,0,1.0,0,1.0,0,1.0
1313,'8',8.3329941,-0.52755774,3.883,-1.017,1.04,0,8.33,0.0,1.0,0.0,0.0,1.0,1,1.0,8.333,2.702,1,1.0,0,1.0,0,1.0,0,1.0,0,1.0
1313,'9',8.333,0.0,3.883,-1.017,1.04,0,8.33,0.0,1.0,0.0,0.0,1.0,0,1.0,8.333,3.708,1,1.0,0,1.0,0,1.0,0,1.0,0,1.0
1318,'1',168.95986,9.1996032,101.8,-22.2,1.045,0,200.0,0.0,1.0,0.0,0.0,1.0,1,1.0,200.0,44.798,1,1.0,0,1.0,0,1.0,0,1.0,0,1.0
1319,'1',199.99986,10.999631,101.8,-22.2,1.045,0,200.0,0.0,1.0,0.0,0.0,1.0,1,1.0,200.0,80.25,1,1.0,0,1.0,0,1.0,0,1.0,0,1.0
1320,'1',199.99986,11.050285,101.8,-22.2,1.045,0,200.0,0.0,1.0,0.0,0.0,1.0,1,1.0,200.0,63.846,1,1.0,0,1.0,0,1.0,0,1.0,0,1.0
1325,'1',934.49934,169.7221,435.477,-114.009,1.063,0,934.5,0.0,1.0,0.0,0.0,1.0,1,1.0,934.5,193.556,1,1.0,0,1.0,0,1.0,0,1.0,0,1.0
1326,'1',934.49934,207.72643,435.477,-114.009,1.063,0,934.5,0.0,1.0,0.0,0.0,1.0,1,1.0,934.5,382.669,1,1.0,0,1.0,0,1.0,0,1.0,0,1.0
1328,'1',56.69996,-5.5586707,26.422,-6.917,1.039,0,56.7,0.0,1.0,0.0,0.0,1.0,1,1.0,56.7,6.738,1,1.0,0,1.0,0,1.0,0,1.0,0,1.0
1328,'2',56.69996,-5.5586707,26.422,-6.917,1.039,0,56.7,0.0,1.0,0.0,0.0,1.0,1,1.0,56.7,10.159,1,1.0,0,1.0,0,1.0,0,1.0,0,1.0
1328,'3',56.69996,-5.5586707,26.422,-6.917,1.039,0,56.7,0.0,1.0,0.0,0.0,1.0,1,1.0,56.7,17.917,1,1.0,0,1.0,0,1.0,0,1.0,0,1.0
1328,'4',56.69996,-5.5586707,26.422,-6.917,1.039,0,56.7,0.0,1.0,0.0,0.0,1.0,1,1.0,56.7,16.45,1,1.0,0,1.0,0,1.0,0,1.0,0,1.0
1330,'1',85.999939,-9.546,43.774,-9.546,1.0501644,0,86.0,0.0,1.0,0.0,0.0,1.0,1,1.0,86.0,10.367,1,1.0,0,1.0,0,1.0,0,1.0,0,1.0
1330,'2',85.999939,-9.546,43.774,-9.546,1.0501644,0,86.0,0.0,1.0,0.0,0.0,1.0,1,1.0,86.0,20.519,1,1.0,0,1.0,0,1.0,0,1.0,0,1.0
1330,'3',85.999939,-9.546,43.774,-9.546,1.0501644,0,86.0,0.0,1.0,0.0,0.0,1.0,1,1.0,86.0,31.997,1,1.0,0,1.0,0,1.0,0,1.0,0,1.0
1332,'1',0.9999993,0.0,0.0,0.0,1.0450488,0,1.0,0.0,1.0,0.0,0.0,1.0,1,1.0,1.0,0.404,1,1.0,0,1.0,0,1.0,0,1.0,0,1.0
1332,'2',2.6999981,0.0,0.0,0.0,1.0450488,0,2.7,0.0,1.0,0.0,0.0,1.0,1,1.0,2.7,1.326,1,1.0,0,1.0,0,1.0,0,1.0,0,1.0
1332,'3',3.4999975,0.0,0.0,0.0,1.0450488,0,3.5,0.0,1.0,0.0,0.0,1.0,1,1.0,3.5,0.715,1,1.0,0,1.0,0,1.0,0,1.0,0,1.0
1332,'4',24.999982,0.0,0.0,0.0,1.0450488,0,25.0,0.0,1.0,0.0,0.0,1.0,1,1.0,25.0,10.328,1,1.0,0,1.0,0,1.0,0,1.0,0,1.0
1336,'1',139.0499,5.3595126,70.776,-15.435,1.0675,0,139.05,0.0,1.0,0.0,0.0,1.0,1,1.0,139.05,37.946,1,1.0,0,1.0,0,1.0,0,1.0,0,1.0
1337,'1',139.0499,5.4836066,70.776,-15.435,1.0675,0,139.05,0.0,1.0,0.0,0.0,1.0,1,1.0,139.05,63.171,1,1.0,0,1.0,0,1.0,0,1.0,0,1.0
1341,'1',134.77,0.0,169.531,-44.384,1.0414154,0,363.8,0.0,1.0,0.0,0.0,1.0,0,1.0,363.8,134.77,1,1.0,0,1.0,0,1.0,0,1.0,0,1.0
1343,'1',46.799967,23.821,23.821,-5.195,1.0211333,0,46.8,0.0,1.0,0.0,0.0,1.0,1,1.0,46.8,17.098,1,1.0,0,1.0,0,1.0,0,1.0,0,1.0
1345,'1',38.3,0.0,19.495,-4.251,1.0001595,0,38.3,0.0,1.0,0.0,0.0,1.0,0,1.0,38.3,4.815,1,1.0,0,1.0,0,1.0,0,1.0,0,1.0
1346,'1',38.3,0.0,19.495,-4.251,1.0179987,0,38.3,0.0,1.0,0.0,0.0,1.0,0,1.0,38.3,17.942,1,1.0,0,1.0,0,1.0,0,1.0,0,1.0
1346,'2',38.3,0.0,19.495,-4.251,1.0179987,0,38.3,0.0,1.0,0.0,0.0,1.0,0,1.0,38.3,17.183,1,1.0,0,1.0,0,1.0,0,1.0,0,1.0
1346,'3',38.3,0.0,19.495,-4.251,1.0179987,0,38.3,0.0,1.0,0.0,0.0,1.0,0,1.0,38.3,12.737,1,1.0,0,1.0,0,1.0,0,1.0,0,1.0
1348,'1',4.1,0.0,2.087,-0.455,1.0498627,0,4.1,0.0,1.0,0.0,0.0,1.0,0,1.0,4.1,1.28,1,1.0,0,1.0,0,1.0,0,1.0,0,1.0
1348,'2',4.1,0.0,2.087,-0.455,1.0498627,0,4.1,0.0,1.0,0.0,0.0,1.0,0,1.0,4.1,0.484,1,1.0,0,1.0,0,1.0,0,1.0,0,1.0
1350,'1',5.0999964,0.0,0.0,0.0,1.0429463,0,5.1,0.0,1.0,0.0,0.0,1.0,1,1.0,5.1,1.284,1,1.0,0,1.0,0,1.0,0,1.0,0,1.0
1350,'2',9.999993,0.0,0.0,0.0,1.0429463,0,10.0,0.0,1.0,0.0,0.0,1.0,1,1.0,10.0,1.91,1,1.0,0,1.0,0,1.0,0,1.0,0,1.0
1352,'1',19.2,0.0,8.947,-2.342,1.0302027,0,19.2,0.0,1.0,0.0,0.0,1.0,0,1.0,19.2,3.432,1,1.0,0,1.0,0,1.0,0,1.0,0,1.0
1354,'1',26.6,0.0,13.539,-2.953,1.0460463,0,26.6,0.0,1.0,0.0,0.0,1.0,0,1.0,26.6,8.702,1,1.0,0,1.0,0,1.0,0,1.0,0,1.0
1356,'1',33.7,0.0,17.153,-3.741,1.0476884,0,33.7,0.0,1.0,0.0,0.0,1.0,0,1.0,33.7,11.2,1,1.0,0,1.0,0,1.0,0,1.0,0,1.0
1360,'1',167.073,-17.379256,207.714,-45.297,1.036,0,408.08,0.0,1.0,0.0,0.0,1.0,1,1.0,408.083,167.073,1,1.0,0,1.0,0,1.0,0,1.0,0,1.0
1361,'1',117.31971,-37.118537,207.714,-45.297,1.036,0,408.08,0.0,1.0,0.0,0.0,1.0,1,1.0,408.083,44.635,1,1.0,0,1.0,0,1.0,0,1.0,0,1.0
1362,'1',142.324,-17.384157,207.714,-45.297,1.036,0,408.08,0.0,1.0,0.0,0.0,1.0,1,1.0,408.083,142.324,1,1.0,0,1.0,0,1.0,0,1.0,0,1.0
1363,'1',195.064,-11.920754,207.714,-45.297,1.036,0,408.08,0.0,1.0,0.0,0.0,1.0,1,1.0,408.083,195.064,1,1.0,0,1.0,0,1.0,0,1.0,0,1.0
1364,'1',151.081,-31.329998,207.714,-45.297,1.036,0,408.08,0.0,1.0,0.0,0.0,1.0,1,1.0,408.083,151.081,1,1.0,0,1.0,0,1.0,0,1.0,0,1.0
1365,'1',147.42971,-17.628979,207.714,-45.297,1.036,0,408.08,0.0,1.0,0.0,0.0,1.0,1,1.0,408.083,82.263,1,1.0,0,1.0,0,1.0,0,1.0,0,1.0
1370,'1',138.412,0.0,212.321,-55.586,1.0379471,0,455.63,0.0,1.0,0.0,0.0,1.0,0,1.0,455.625,138.412,1,1.0,0,1.0,0,1.0,0,1.0,0,1.0
1371,'1',88.104,0.0,212.321,-55.586,1.0379471,0,455.63,0.0,1.0,0.0,0.0,1.0,0,1.0,455.625,88.104,1,1.0,0,1.0,0,1.0,0,1.0,0,1.0
1372,'1',105.861,0.0,212.321,-55.586,1.0379471,0,455.63,0.0,1.0,0.0,0.0,1.0,0,1.0,455.625,105.861,1,1.0,0,1.0,0,1.0,0,1.0,0,1.0
1373,'1',111.3,0.0,212.321,-55.586,1.0379471,0,455.63,0.0,1.0,0.0,0.0,1.0,0,1.0,455.625,111.3,1,1.0,0,1.0,0,1.0,0,1.0,0,1.0
...
0 / END OF GENERATOR DATA BEGIN BRANCH DATA
1,3,'1',0.00023182,0.00102493,0.0,99999.0,99999.0,99999.0,0.0,0.0,0.0,0.0,1,1,0.0,1,1.0,0,1.0,0,1.0,0,1.0
1,28,'1',0.00413857,0.0270728,0.00746341,219.62,219.62,219.62,0.0,0.0,0.0,0.0,1,1,0.0,1,1.0,0,1.0,0,1.0,0,1.0
1,174,'1',0.00529188,0.0209981,0.0166533,241.75,241.75,241.75,0.0,0.0,0.0,0.0,1,1,0.0,1,1.0,0,1.0,0,1.0,0,1.0
1,174,'2',0.00529188,0.0209981,0.0166533,241.75,241.75,241.75,0.0,0.0,0.0,0.0,1,1,0.0,1,1.0,0,1.0,0,1.0,0,1.0
1,247,'1',0.00712647,0.0357571,0.00985329,265.68,265.68,265.68,0.0,0.0,0.0,0.0,1,1,0.0,1,1.0,0,1.0,0,1.0,0,1.0
1,248,'1',0.00369663,0.021138,0.0100986,243.83,243.83,243.83,0.0,0.0,0.0,0.0,1,1,0.0,1,1.0,0,1.0,0,1.0,0,1.0
2,23,'1',0.0104592,0.0332497,0.00196885,79.04,79.04,79.04,0.0,0.0,0.0,0.0,1,1,0.0,1,1.0,0,1.0,0,1.0,0,1.0
2,23,'2',0.0104592,0.0332497,0.00196885,79.04,79.04,79.04,0.0,0.0,0.0,0.0,1,1,0.0,1,1.0,0,1.0,0,1.0,0,1.0
2,23,'3',0.0104592,0.0332497,0.00196885,79.04,79.04,79.04,0.0,0.0,0.0,0.0,1,1,0.0,1,1.0,0,1.0,0,1.0,0,1.0
4,128,'1',0.0132902,0.0268195,0.00578327,64.44,64.44,64.44,0.0,0.0,0.0,0.0,1,1,0.0,1,1.0,0,1.0,0,1.0,0,1.0
4,164,'1',0.0219322,0.0591199,0.0121884,52.0,52.0,52.0,0.0,0.0,0.0,0.0,1,1,0.0,1,1.0,0,1.0,0,1.0,0,1.0
5,4,'1',0.0108814,0.0309317,0.0010461,80.95,80.95,80.95,0.0,0.0,0.0,0.0,1,1,0.0,1,1.0,0,1.0,0,1.0,0,1.0
5,10,'1',0.00934009,0.0255526,0.00609131,108.59,108.59,108.59,0.0,0.0,0.0,0.0,1,1,0.0,1,1.0,0,1.0,0,1.0,0,1.0
6,13,'1',0.0134592,0.0297145,0.0015211,65.19,65.19,65.19,0.0,0.0,0.0,0.0,1,1,0.0,1,1.0,0,1.0,0,1.0,0,1.0
6,13,'2',0.0134592,0.0297145,0.0015211,65.19,65.19,65.19,0.0,0.0,0.0,0.0,1,1,0.0,1,1.0,0,1.0,0,1.0,0,1.0
6,43,'1',0.0177663,0.0495402,0.00459009,81.61,81.61,81.61,0.0,0.0,0.0,0.0,1,1,0.0,1,1.0,0,1.0,0,1.0,0,1.0
6,43,'2',0.0177663,0.0495402,0.00459009,81.61,81.61,81.61,0.0,0.0,0.0,0.0,1,1,0.0,1,1.0,0,1.0,0,1.0,0,1.0
6,43,'3',0.0177663,0.0495402,0.00459009,81.61,81.61,81.61,0.0,0.0,0.0,0.0,1,1,0.0,1,1.0,0,1.0,0,1.0,0,1.0
7,86,'1',0.00434889,0.0146316,0.0344193,256.34,256.34,256.34,0.0,0.0,0.0,0.0,1,1,0.0,1,1.0,0,1.0,0,1.0,0,1.0
7,86,'2',0.00434889,0.0146316,0.0344193,256.34,256.34,256.34,0.0,0.0,0.0,0.0,1,1,0.0,1,1.0,0,1.0,0,1.0,0,1.0
7,86,'3',0.00434889,0.0146316,0.0344193,256.34,256.34,256.34,0.0,0.0,0.0,0.0,1,1,0.0,1,1.0,0,1.0,0,1.0,0,1.0
8,214,'1',0.0177395,0.0479832,0.00111804,105.16,105.16,105.16,0.0,0.0,0.0,0.0,1,1,0.0,1,1.0,0,1.0,0,1.0,0,1.0
9,7,'1',0.00214021,0.0150334,0.0121318,319.17,319.17,319.17,0.0,0.0,0.0,0.0,1,1,0.0,1,1.0,0,1.0,0,1.0,0,1.0
9,11,'1',0.000211449,0.00119004,0.0,99999.0,99999.0,99999.0,0.0,0.0,0.0,0.0,1,1,0.0,1,1.0,0,1.0,0,1.0,0,1.0
9,208,'1',0.00444784,0.0271527,0.0302679,318.16,318.16,318.16,0.0,0.0,0.0,0.0,1,1,0.0,1,1.0,0,1.0,0,1.0,0,1.0
10,6,'1',0.0170262,0.0421583,0.00119287,86.29,86.29,86.29,0.0,0.0,0.0,0.0,1,1,0.0,1,1.0,0,1.0,0,1.0,0,1.0
12,14,'1',0.000238768,0.00116074,0.0,99999.0,99999.0,99999.0,0.0,0.0,0.0,0.0,1,1,0.0,1,1.0,0,1.0,0,1.0,0,1.0
13,8,'1',0.0165507,0.0426667,0.00366785,133.11,133.11,133.11,0.0,0.0,0.0,0.0,1,1,0.0,1,1.0,0,1.0,0,1.0,0,1.0
13,17,'1',0.0320514,0.0754904,0.00235805,82.53,82.53,82.53,0.0,0.0,0.0,0.0,1,1,0.0,1,1.0,0,1.0,0,1.0,0,1.0
13,187,'1',0.0069238,0.0171061,0.00801142,79.4,79.4,79.4,0.0,0.0,0.0,0.0,1,1,0.0,1,1.0,0,1.0,0,1.0,0,1.0
14,9,'1',0.00364564,0.0218068,0.0060302,172.04,172.04,172.04,0.0,0.0,0.0,0.0,1,1,0.0,1,1.0,0,1.0,0,1.0,0,1.0
15,151,'1',0.00171507,0.0115251,0.0086048,286.2,286.2,286.2,0.0,0.0,0.0,0.0,1,1,0.0,1,1.0,0,1.0,0,1.0,0,1.0
15,211,'1',0.00192474,0.0105067,0.00425216,280.32,280.32,280.32,0.0,0.0,0.0,0.0,1,1,0.0,1,1.0,0,1.0,0,1.0,0,1.0
15,232,'1',0.0046,0.029799,0.0212613,280.54,280.54,280.54,0.0,0.0,0.0,0.0,1,1,0.0,1,1.0,0,1.0,0,1.0,0,1.0
15,232,'2',0.0046,0.029799,0.0212613,321.13,321.13,321.13,0.0,0.0,0.0,0.0,1,1,0.0,1,1.0,0,1.0,0,1.0,0,1.0
16,21,'1',0.011558,0.0357297,0.00234347,105.45,105.45,105.45,0.0,0.0,0.0,0.0,1,1,0.0,1,1.0,0,1.0,0,1.0,0,1.0
16,35,'1',0.00813416,0.0195601,0.00218755,92.42,92.42,92.42,0.0,0.0,0.0,0.0,1,1,0.0,1,1.0,0,1.0,0,1.0,0,1.0
16,37,'1',0.0129734,0.0401236,0.000641011,73.63,73.63,73.63,0.0,0.0,0.0,0.0,1,1,0.0,1,1.0,0,1.0,0,1.0,0,1.0
17,43,'1',0.0167472,0.042412,0.00168994,99.4,99.4,99.4,0.0,0.0,0.0,0.0,1,1,0.0,1,1.0,0,1.0,0,1.0,0,1.0
18,19,'1',0.000249168,0.00107953,0.0,99999.0,99999.0,99999.0,0.0,0.0,0.0,0.0,1,1,0.0,1,1.0,0,1.0,0,1.0,0,1.0
18,187,'1',0.018127,0.0528191,0.00213896,73.01,73.01,73.01,0.0,0.0,0.0,0.0,1,1,0.0,1,1.0,0,1.0,0,1.0,0,1.0
18,187,'2',0.018127,0.0528191,0.00213896,82.62,82.62,82.62,0.0,0.0,0.0,0.0,1,1,0.0,1,1.0,0,1.0,0,1.0,0,1.0
20,22,'1',0.000219564,0.00118149,0.0,99999.0,99999.0,99999.0,0.0,0.0,0.0,0.0,1,1,0.0,1,1.0,0,1.0,0,1.0,0,1.0
21,38,'1',0.0228097,0.052298,0.00200842,68.0,68.0,68.0,0.0,0.0,0.0,0.0,1,1,0.0,1,1.0,0,1.0,0,1.0,0,1.0
21,38,'2',0.0228097,0.052298,0.00200842,68.0,68.0,68.0,0.0,0.0,0.0,0.0,1,1,0.0,1,1.0,0,1.0,0,1.0,0,1.0
22,34,'1',0.00459707,0.0237513,0.0317594,215.75,215.75,215.75,0.0,0.0,0.0,0.0,1,1,0.0,1,1.0,0,1.0,0,1.0,0,1.0
22,86,'1',0.0024419,0.0144345,0.00822082,267.98,267.98,267.98,0.0,0.0,0.0,0.0,1,1,0.0,1,1.0,0,1.0,0,1.0,0,1.0
22,215,'1',0.00318566,0.01486,0.0134473,258.04,258.04,258.04,0.0,0.0,0.0,0.0,1,1,0.0,1,1.0,0,1.0,0,1.0,0,1.0
22,215,'2',0.00318566,0.01486,0.0134473,258.04,258.04,258.04,0.0,0.0,0.0,0.0,1,1,0.0,1,1.0,0,1.0,0,1.0,0,1.0
22,215,'3',0.00318566,0.01486,0.0134473,258.04,258.04,258.04,0.0,0.0,0.0,0.0,1,1,0.0,1,1.0,0,1.0,0,1.0,0,1.0
22,548,'1',0.00620426,0.0329366,0.0176561,258.61,258.61,258.61,0.0,0.0,0.0,0.0,1,1,0.0,1,1.0,0,1.0,0,1.0,0,1.0
22,548,'2',0.00620426,0.0329366,0.0176561,258.61,258.61,258.61,0.0,0.0,0.0,0.0,1,1,0.0,1,1.0,0,1.0,0,1.0,0,1.0
22,548,'3',0.00620426,0.0329366,0.0176561,258.61,258.61,258.61,0.0,0.0,0.0,0.0,1,1,0.0,1,1.0,0,1.0,0,1.0,0,1.0
23,177,'1',0.0167668,0.0454559,0.00130041,75.07,75.07,75.07,0.0,0.0,0.0,0.0,1,1,0.0,1,1.0,0,1.0,0,1.0,0,1.0
24,16,'1',0.0118471,0.0318563,0.00208615,99.33,99.33,99.33,0.0,0.0,0.0,0.0,0,1,0.0,1,1.0,0,1.0,0,1.0,0,1.0
24,25,'1',0.000264528,0.00110156,0.0,99999.0,99999.0,99999.0,0.0,0.0,0.0,0.0,1,1,0.0,1,1.0,0,1.0,0,1.0,0,1.0
24,41,'1',0.015854,0.041633,0.00114618,67.07,67.07,67.07,0.0,0.0,0.0,0.0,1,1,0.0,1,1.0,0,1.0,0,1.0,0,1.0
24,41,'2',0.015854,0.041633,0.00114618,67.07,67.07,67.07,0.0,0.0,0.0,0.0,1,1,0.0,1,1.0,0,1.0,0,1.0,0,1.0
26,28,'1',0.000288654,0.00112215,0.0,99999.0,99999.0,99999.0,0.0,0.0,0.0,0.0,1,1,0.0,1,1.0,0,1.0,0,1.0,0,1.0
27,23,'1',0.0127749,0.0299585,0.00159547,59.21,59.21,59.21,0.0,0.0,0.0,0.0,1,1,0.0,1,1.0,0,1.0,0,1.0,0,1.0
27,177,'1',0.0148095,0.0384174,0.00194579,76.41,76.41,76.41,0.0,0.0,0.0,0.0,1,1,0.0,1,1.0,0,1.0,0,1.0,0,1.0
27,219,'1',0.0146725,0.0356523,0.000881023,55.36,55.36,55.36,0.0,0.0,0.0,0.0,1,1,0.0,1,1.0,0,1.0,0,1.0,0,1.0
28,165,'1',0.00356549,0.0232361,0.00589297,350.0,350.0,350.0,0.0,0.0,0.0,0.0,1,1,0.0,1,1.0,0,1.0,0,1.0,0,1.0
28,174,'1',0.00146485,0.0101278,0.00457715,241.31,241.31,241.31,0.0,0.0,0.0,0.0,1,1,0.0,1,1.0,0,1.0,0,1.0,0,1.0
28,555,'1',0.00683845,0.0343749,0.0208829,322.49,322.49,322.49,0.0,0.0,0.0,0.0,1,1,0.0,1,1.0,0,1.0,0,1.0,0,1.0
29,252,'1',0.0190813,0.056663,0.00108459,60.63,60.63,60.63,0.0,0.0,0.0,0.0,1,1,0.0,1,1.0,0,1.0,0,1.0,0,1.0
29,267,'1',0.0244295,0.0641456,0.00258533,81.86,81.86,81.86,0.0,0.0,0.0,0.0,1,1,0.0,1,1.0,0,1.0,0,1.0,0,1.0
29,557,'1',0.00231061,0.00635728,0.000323514,96.22,96.22,96.22,0.0,0.0,0.0,0.0,1,1,0.0,1,1.0,0,1.0,0,1.0,0,1.0
29,557,'2',0.00231061,0.00635728,0.000323514,109.17,109.17,109.17,0.0,0.0,0.0,0.0,1,1,0.0,1,1.0,0,1.0,0,1.0,0,1.0
30,31,'1',0.0017784,0.0116988,0.00650237,191.0,191.0,191.0,0.0,0.0,0.0,0.0,1,1,0.0,1,1.0,0,1.0,0,1.0,0,1.0
31,33,'1',0.000274453,0.00119906,0.0,99999.0,99999.0,99999.0,0.0,0.0,0.0,0.0,1,1,0.0,1,1.0,0,1.0,0,1.0,0,1.0
31,42,'1',0.00623491,0.0279952,0.00721758,229.38,229.38,229.38,0.0,0.0,0.0,0.0,1,1,0.0,1,1.0,0,1.0,0,1.0,0,1.0
32,17,'1',0.0264094,0.065065,0.0020865,68.42,68.42,68.42,0.0,0.0,0.0,0.0,1,1,0.0,1,1.0,0,1.0,0,1.0,0,1.0
32,17,'2',0.0264094,0.065065,0.0020865,68.42,68.42,68.42,0.0,0.0,0.0,0.0,1,1,0.0,1,1.0,0,1.0,0,1.0,0,1.0
32,283,'1',0.0142241,0.0432463,0.00220303,67.66,67.66,67.66,0.0,0.0,0.0,0.0,1,1,0.0,1,1.0,0,1.0,0,1.0,0,1.0
32,283,'2',0.0142241,0.0432463,0.00220303,67.66,67.66,67.66,0.0,0.0,0.0,0.0,1,1,0.0,1,1.0,0,1.0,0,1.0,0,1.0
34,31,'1',0.003786,0.0214023,0.00785309,232.2,232.2,232.2,0.0,0.0,0.0,0.0,1,1,0.0,1,1.0,0,1.0,0,1.0,0,1.0
34,31,'2',0.003786,0.0214023,0.00785309,232.2,232.2,232.2,0.0,0.0,0.0,0.0,1,1,0.0,1,1.0,0,1.0,0,1.0,0,1.0
34,39,'1',0.00416941,0.0265708,0.00900656,241.19,241.19,241.19,0.0,0.0,0.0,0.0,1,1,0.0,1,1.0,0,1.0,0,1.0,0,1.0
34,39,'2',0.00416941,0.0265708,0.00900656,241.19,241.19,241.19,0.0,0.0,0.0,0.0,1,1,0.0,1,1.0,0,1.0,0,1.0,0,1.0
34,564,'1',0.00581665,0.0316411,0.00756963,215.42,215.42,215.42,0.0,0.0,0.0,0.0,1,1,0.0,1,1.0,0,1.0,0,1.0,0,1.0
35,238,'1',0.0300367,0.0904545,0.00848998,62.8,62.8,62.8,0.0,0.0,0.0,0.0,1,1,0.0,1,1.0,0,1.0,0,1.0,0,1.0
35,557,'1',0.0312946,0.0706114,0.00282773,76.09,76.09,76.09,0.0,0.0,0.0,0.0,1,1,0.0,1,1.0,0,1.0,0,1.0,0,1.0
35,557,'2',0.0312946,0.0706114,0.00282773,76.09,76.09,76.09,0.0,0.0,0.0,0.0,1,1,0.0,1,1.0,0,1.0,0,1.0,0,1.0
35,557,'3',0.0312946,0.0706114,0.00282773,76.09,76.09,76.09,0.0,0.0,0.0,0.0,1,1,0.0,1,1.0,0,1.0,0,1.0,0,1.0
36,35,'1',0.0265135,0.047453,0.00141328,68.8,68.8,68.8,0.0,0.0,0.0,0.0,1,1,0.0,1,1.0,0,1.0,0,1.0,0,1.0
36,35,'2',0.0265135,0.047453,0.00141328,68.8,68.8,68.8,0.0,0.0,0.0,0.0,1,1,0.0,1,1.0,0,1.0,0,1.0,0,1.0
36,245,'1',0.0293616,0.0673862,0.0011626,49.63,49.63,49.63,0.0,0.0,0.0,0.0,1,1,0.0,1,1.0,0,1.0,0,1.0,0,1.0
36,249,'1',0.00801014,0.0261499,0.00092202,75.41,75.41,75.41,0.0,0.0,0.0,0.0,1,1,0.0,1,1.0,0,1.0,0,1.0,0,1.0
36,249,'2',0.00801014,0.0261499,0.00092202,75.41,75.41,75.41,0.0,0.0,0.0,0.0,1,1,0.0,1,1.0,0,1.0,0,1.0,0,1.0
36,249,'3',0.00801014,0.0261499,0.00092202,75.41,75.41,75.41,0.0,0.0,0.0,0.0,1,1,0.0,1,1.0,0,1.0,0,1.0,0,1.0
36,557,'1',0.0164183,0.0420729,0.0024045,101.25,101.25,101.25,0.0,0.0,0.0,0.0,1,1,0.0,1,1.0,0,1.0,0,1.0,0,1.0
37,21,'1',0.0161314,0.0299526,0.00131014,73.06,73.06,73.06,0.0,0.0,0.0,0.0,1,1,0.0,1,1.0,0,1.0,0,1.0,0,1.0
...